data_POSCAR
  _audit_creation_date              2014-09-24
  _audit_creation_method            'ToBaCCo'
  _symmetry_space_group_name_H-M    'P1'
  _symmetry_Int_Tables_number       1
  _symmetry_cell_setting            triclinic
  loop_
  _symmetry_equiv_pos_as_xyz
 x,y,z
_cell_length_a 45.5175
_cell_length_b 47.9338
_cell_length_c 42.8751
_cell_angle_alpha 90.160200
_cell_angle_beta 90.130700
_cell_angle_gamma 89.754400
loop_
  _atom_site_label
  _atom_site_type_symbol
  _atom_site_fract_x
  _atom_site_fract_y
  _atom_site_fract_z
N1 N 0.17198 0.19632 0.24324
 N2 N 0.19116 0.17582 0.24059
 C3 C 0.18516 0.15606 0.26186
 C4 C 0.16098 0.16467 0.27859
 C5 C 0.15300 0.19023 0.26634
 H6 H 0.19729 0.13677 0.26474
 H7 H 0.13470 0.20322 0.27345
 Cu8 Cu 0.22174 0.17616 0.20919
 Cu9 Cu 0.17291 0.22882 0.21578
 Cu10 Cu 0.23256 0.23346 0.16587
 N11 N 0.25739 0.18118 0.18517
 N12 N 0.26160 0.20354 0.16806
 C13 C 0.28718 0.20081 0.15254
 C14 C 0.29945 0.17548 0.16066
 C15 C 0.28012 0.16347 0.18126
 H16 H 0.29571 0.21566 0.13594
 H17 H 0.28202 0.14307 0.19181
 N18 N 0.20088 0.26160 0.16706
 N19 N 0.17812 0.25988 0.18603
 C20 C 0.15968 0.28134 0.18017
 C21 C 0.17154 0.29715 0.15654
 C22 C 0.19752 0.28414 0.14865
 H23 H 0.13876 0.28476 0.19148
 H24 H 0.21232 0.29016 0.13018
 H25 H 0.19544 0.21135 0.17893
 H26 H 0.21796 0.22671 0.21115
 N27 N -0.16846 0.81003 0.23540
 N28 N -0.19157 0.82649 0.23760
 C29 C -0.18574 0.84705 0.25818
 C30 C -0.15761 0.84313 0.26934
 C31 C -0.14717 0.81954 0.25451
 H32 H -0.20068 0.86374 0.26445
 H33 H -0.12569 0.81012 0.25729
 Cu34 Cu -0.22694 0.82004 0.21299
 Cu35 Cu -0.16770 0.77782 0.20762
 Cu36 Cu -0.22913 0.76678 0.16146
 N37 N -0.26064 0.81400 0.18572
 N38 N -0.26134 0.79325 0.16560
 C39 C -0.28627 0.79486 0.14869
 C40 C -0.30191 0.81774 0.15899
 C41 C -0.28515 0.82958 0.18230
 H42 H -0.29206 0.78106 0.12966
 H43 H -0.28996 0.84861 0.19494
 N44 N -0.19446 0.74215 0.16055
 N45 N -0.17101 0.74634 0.17814
 C46 C -0.15094 0.72637 0.17181
 C47 C -0.16243 0.70900 0.14928
 C48 C -0.18992 0.71945 0.14255
 H49 H -0.12944 0.72472 0.18246
 H50 H -0.20524 0.71129 0.12556
 H51 H -0.19684 0.79452 0.17539
 H52 H -0.21253 0.77130 0.20603
 N53 N -0.16532 0.19037 -0.22206
 N54 N -0.18704 0.17243 -0.22415
 C55 C -0.17997 0.15241 -0.24492
 C56 C -0.15242 0.15817 -0.25641
 C57 C -0.14365 0.18236 -0.24158
 H58 H -0.19389 0.13509 -0.25137
 H59 H -0.12329 0.19347 -0.24505
 Cu60 Cu -0.22261 0.17690 -0.19979
 Cu61 Cu -0.16763 0.22323 -0.19501
 Cu62 Cu -0.23132 0.23090 -0.15098
 N63 N -0.25171 0.17617 -0.16676
 N64 N -0.25517 0.19740 -0.14760
 C65 C -0.27705 0.19171 -0.12750
 C66 C -0.28752 0.16547 -0.13455
 C67 C -0.27111 0.15611 -0.15947
 H68 H -0.28468 0.20561 -0.10928
 H69 H -0.27318 0.13631 -0.17146
 N70 N -0.19900 0.25811 -0.15013
 N71 N -0.17457 0.25506 -0.16643
 C72 C -0.15667 0.27672 -0.16018
 C73 C -0.17057 0.29398 -0.13903
 C74 C -0.19724 0.28168 -0.13303
 H75 H -0.13508 0.27970 -0.17008
 H76 H -0.21392 0.28913 -0.11709
 H77 H -0.19632 0.20606 -0.16271
 H78 H -0.21233 0.22709 -0.19504
 N79 N 0.18178 0.81265 -0.25557
 N80 N 0.20271 0.83127 -0.25221
 C81 C 0.19818 0.85218 -0.27267
 C82 C 0.17321 0.84617 -0.28959
 C83 C 0.16327 0.82104 -0.27828
 H84 H 0.21167 0.87059 -0.27479
 H85 H 0.14379 0.80995 -0.28567
 Cu86 Cu 0.23329 0.82702 -0.22073
 Cu87 Cu 0.17957 0.77943 -0.22959
 Cu88 Cu 0.23280 0.77183 -0.17230
 N89 N 0.26226 0.82279 -0.18756
 N90 N 0.26200 0.80115 -0.16875
 C91 C 0.28354 0.80393 -0.14738
 C92 C 0.29794 0.82855 -0.15330
 C93 C 0.28402 0.84013 -0.17878
 H94 H 0.28791 0.78951 -0.12855
 H95 H 0.28894 0.85993 -0.18957
 N96 N 0.20151 0.74433 -0.17936
 N97 N 0.18107 0.74725 -0.20105
 C98 C 0.16201 0.72588 -0.19887
 C99 C 0.17109 0.70888 -0.17481
 C100 C 0.19602 0.72106 -0.16286
 H101 H 0.14248 0.72331 -0.21298
 H102 H 0.20858 0.71397 -0.14295
 H103 H 0.20023 0.79704 -0.19127
 H104 H 0.22372 0.77700 -0.21919
 N105 N 0.18140 1.17080 0.75598
 N106 N 0.15922 1.18694 0.76400
 C107 C 0.13689 1.18317 0.74379
 C108 C 0.14573 1.16365 0.72209
 C109 C 0.17394 1.15611 0.73039
 H110 H 0.11576 1.19351 0.74504
 H111 H 0.18774 1.14075 0.71901
 Cu112 Cu 0.16119 1.21075 0.80048
 Cu113 Cu 0.21759 1.16917 0.78026
 Cu114 Cu 0.22536 1.21854 0.83879
 N115 N 0.16796 1.24176 0.82853
 N116 N 0.19301 1.24500 0.84344
 C117 C 0.19160 1.26849 0.86075
 C118 C 0.16425 1.28032 0.85619
 C119 C 0.14980 1.26300 0.83569
 H120 H 0.20916 1.27647 0.87525
 H121 H 0.12788 1.26583 0.82641
 N122 N 0.25530 1.18975 0.83004
 N123 N 0.25237 1.17100 0.80760
 C124 C 0.27528 1.15316 0.80875
 C125 C 0.29335 1.16121 0.83290
 C126 C 0.28017 1.18432 0.84604
 H127 H 0.27794 1.13491 0.79412
 H128 H 0.28747 1.19552 0.86655
 H129 H 0.20210 1.18438 0.82255
 H130 H 0.21394 1.21074 0.79301
 N131 N 0.80567 0.81145 0.72820
 N132 N 0.82898 0.79618 0.73452
 C133 C 0.84769 0.79723 0.71029
 C134 C 0.83529 0.81391 0.68768
 C135 C 0.80876 0.82276 0.69969
 H136 H 0.86949 0.78816 0.70998
 H137 H 0.79391 0.83786 0.68943
 Cu138 Cu 0.83476 0.77941 0.77514
 Cu139 Cu 0.77541 0.81881 0.75918
 Cu140 Cu 0.78072 0.78265 0.82879
 N141 N 0.83450 0.75543 0.81140
 N142 N 0.81358 0.75669 0.83249
 C143 C 0.81942 0.73800 0.85514
 C144 C 0.84527 0.72450 0.84753
 C145 C 0.85428 0.73592 0.81978
 H146 H 0.80597 0.73453 0.87551
 H147 H 0.87379 0.73046 0.80672
 N148 N 0.74921 0.80993 0.82010
 N149 N 0.74709 0.82351 0.79341
 C150 C 0.72431 0.84147 0.79497
 C151 C 0.71161 0.83895 0.82390
 C152 C 0.72777 0.81890 0.83936
 H153 H 0.71799 0.85599 0.77688
 H154 H 0.72466 0.81201 0.86312
 H155 H 0.79972 0.81138 0.79932
 H156 H 0.78169 0.78046 0.78073
 N157 N 0.17657 0.82745 1.24745
 N158 N 0.15807 0.80654 1.24930
 C159 C 0.13936 0.81125 1.27307
 C160 C 0.14672 0.83635 1.28662
 C161 C 0.17029 0.84620 1.26992
 H162 H 0.12139 0.79780 1.27962
 H163 H 0.18146 0.86584 1.27335
 Cu164 Cu 0.15920 0.77561 1.21996
 Cu165 Cu 0.20597 0.82966 1.21488
 Cu166 Cu 0.21202 0.77331 1.16459
 N167 N 0.16524 0.74308 1.19368
 N168 N 0.18565 0.74212 1.17202
 C169 C 0.18342 0.71779 1.15633
 C170 C 0.16058 0.70289 1.16914
 C171 C 0.14943 0.71944 1.19258
 H172 H 0.19657 0.71191 1.13637
 H173 H 0.13045 0.71503 1.20684
 N174 N 0.23672 0.80692 1.16106
 N175 N 0.23435 0.82827 1.18045
 C176 C 0.25364 0.84808 1.17212
 C177 C 0.26878 0.83874 1.14640
 C178 C 0.25772 0.81262 1.13985
 H179 H 0.25642 0.86796 1.18372
 H180 H 0.26439 0.79893 1.12104
 H181 H 0.18532 0.80444 1.18220
 H182 H 0.21060 0.78664 1.21033
 N183 N 0.79865 1.18719 1.26387
 N184 N 0.82000 1.20542 1.26136
 C185 C 0.83660 1.20466 1.28736
 C186 C 0.82494 1.18501 1.30707
 C187 C 0.80101 1.17413 1.29154
 H188 H 0.85681 1.21606 1.29081
 H189 H 0.78770 1.15670 1.29884
 Cu190 Cu 0.82699 1.22554 1.22295
 Cu191 Cu 0.77209 1.17917 1.22942
 Cu192 Cu 0.77948 1.21929 1.16284
 N193 N 0.82815 1.25024 1.18728
 N194 N 0.80976 1.24781 1.16373
 C195 C 0.81650 1.26690 1.14190
 C196 C 0.84024 1.28193 1.15263
 C197 C 0.84714 1.27096 1.18133
 H198 H 0.80540 1.26930 1.11973
 H199 H 0.86500 1.27727 1.19642
 N200 N 0.75025 1.18932 1.16664
 N201 N 0.74736 1.17416 1.19213
 C202 C 0.72645 1.15483 1.18725
 C203 C 0.71584 1.15810 1.15741
 C204 C 0.73125 1.18001 1.14485
 H205 H 0.71988 1.13911 1.20384
 H206 H 0.72920 1.18810 1.12142
 H207 H 0.79907 1.19123 1.19297
 H208 H 0.77532 1.21891 1.21079
 O209 O 0.52364 0.98439 0.92524
 O210 O 0.46930 0.96705 1.06030
 O211 O 0.53584 0.94806 1.01905
 O212 O 0.44425 0.98059 0.97402
 O213 O 0.52482 0.96571 1.06365
 O214 O 0.48431 0.96053 0.95713
 O215 O 0.43760 0.98886 1.03003
 O216 O 0.53720 0.96022 0.96527
 C217 C 0.54192 0.96671 0.93715
 C218 C 0.44376 0.97017 1.04981
 C219 C 0.53466 0.94592 1.04774
 C220 C 0.45713 0.95994 0.96154
 O221 O 0.47306 1.00757 0.93348
 O222 O 0.52557 1.02036 1.06295
 O223 O 0.55715 1.01197 0.98067
 O224 O 0.45988 1.04110 1.02285
 O225 O 0.47042 1.02071 1.06581
 O226 O 0.51916 1.02864 0.95746
 O227 O 0.46567 1.03498 0.97014
 O228 O 0.55877 0.99827 1.03543
 Co229 Co 0.50241 0.99435 0.95907
 Co230 Co 0.49776 0.99368 1.05776
 Co231 Co 0.54312 0.98110 1.00055
 Co232 Co 0.45543 1.01008 0.99952
 O233 O 0.49848 0.99572 1.00634
 C234 C 0.46118 1.02929 0.94249
 C235 C 0.55155 1.01739 1.05422
 C236 C 0.54536 1.03096 0.96510
 C237 C 0.46022 1.04114 1.05156
 O238 O 0.02910 0.47459 0.05258
 O239 O 0.02965 0.53135 -0.06726
 O240 O 0.01346 0.44556 -0.03965
 O241 O 0.04793 0.53294 0.02773
 O242 O 0.03298 0.47963 -0.06456
 O243 O 0.01702 0.52459 0.06219
 O244 O 0.05216 0.54388 -0.02541
 O245 O 0.04112 0.45716 0.00835
 C246 C 0.04668 0.46060 0.03636
 C247 C 0.05027 0.54376 -0.05416
 C248 C 0.03214 0.45431 -0.05836
 C249 C 0.04149 0.53366 0.05533
 O250 O -0.03574 0.51752 0.03939
 O251 O -0.02610 0.47769 -0.06205
 O252 O -0.00620 0.43054 0.01664
 O253 O -0.00420 0.56144 -0.02867
 O254 O -0.02612 0.53128 -0.06040
 O255 O -0.02832 0.46626 0.03896
 O256 O -0.00964 0.55408 0.02732
 O257 O -0.03543 0.46303 -0.01562
 Co258 Co -0.00309 0.49628 0.04287
 Co259 Co 0.00284 0.50437 -0.05827
 Co260 Co 0.00317 0.46223 -0.00315
 Co261 Co 0.02042 0.54456 0.00025
 O262 O 0.00691 0.50357 -0.00710
 C263 C -0.03322 0.54342 0.03714
 C264 C -0.04245 0.46488 -0.04351
 C265 C -0.02327 0.44006 0.03886
 C266 C -0.02338 0.55552 -0.04924
 O267 O 1.06512 0.02150 0.47573
 O268 O 0.93673 0.03019 0.53225
 O269 O 0.97431 0.05142 0.46125
 O270 O 1.01780 0.02113 0.55944
 O271 O 0.93362 0.03162 0.47345
 O272 O 1.03253 0.04287 0.51759
 O273 O 0.96585 0.00918 0.56576
 O274 O 1.02553 0.04252 0.46096
 C275 C 1.05252 0.03806 0.45609
 C276 C 0.94647 0.02731 0.55939
 C277 C 0.94725 0.05227 0.46345
 C278 C 1.02839 0.04258 0.54648
 O279 O 1.05857 -0.00260 0.52914
 O280 O 0.93794 -0.02277 0.47171
 O281 O 1.01567 -0.01023 0.43912
 O282 O 0.97722 -0.04213 0.54056
 O283 O 0.93543 -0.02377 0.53014
 O284 O 1.03854 -0.02469 0.47983
 O285 O 1.02646 -0.03254 0.53598
 O286 O 0.96295 0.00027 0.43671
 Co287 Co 1.03385 0.00922 0.49781
 Co288 Co 0.94104 0.00388 0.50173
 Co289 Co 0.99429 0.01949 0.45385
 Co290 Co 0.99646 -0.00977 0.54667
 O291 O 0.98949 0.00465 0.50118
 C292 C 1.05187 -0.02495 0.54134
 C293 C 0.94565 -0.01916 0.44407
 C294 C 1.03192 -0.02787 0.45201
 C295 C 0.95028 -0.04409 0.53891
 C296 C 1.09568 0.08644 0.39258
 C297 C 1.12125 0.07675 0.37716
 C298 C 1.13465 0.09346 0.35385
 C299 C 1.12239 0.11978 0.34606
 C300 C 1.09685 0.12948 0.36153
 C301 C 1.08348 0.11278 0.38487
 C302 C 1.05790 0.12293 0.39992
 C303 C 1.04590 0.14879 0.39217
 C304 C 1.05893 0.16506 0.36931
 C305 C 1.08413 0.15563 0.35410
 C306 C 1.16014 0.08325 0.33870
 C307 C 1.17201 0.05729 0.34630
 C308 C 1.15889 0.04096 0.36905
 C309 C 1.13380 0.05047 0.38439
 C310 C 1.13590 0.13664 0.32190
 C311 C 1.14744 0.15017 0.30166
 C312 C 1.08141 0.06904 0.41572
 C313 C 1.06880 0.05475 0.43449
 H314 H 1.04693 0.11103 0.41783
 H315 H 1.02635 0.15622 0.40395
 H316 H 1.04947 0.18510 0.36332
 H317 H 1.09348 0.16904 0.33649
 H318 H 1.17113 0.09517 0.32083
 H319 H 1.19149 0.04980 0.33445
 H320 H 1.16820 0.02081 0.37485
 H321 H 1.12439 0.03702 0.40193
 C322 C 0.91075 -0.07097 0.37763
 C323 C 0.89846 -0.09665 0.38722
 C324 C 0.88532 -0.11471 0.36486
 C325 C 0.88451 -0.10701 0.33300
 C326 C 0.89723 -0.08154 0.32334
 C327 C 0.91037 -0.06347 0.34571
 C328 C 0.92283 -0.03811 0.33547
 C329 C 0.92239 -0.03080 0.30404
 C330 C 0.90956 -0.04844 0.28218
 C331 C 0.89707 -0.07353 0.29159
 C332 C 0.87314 -0.14021 0.37506
 C333 C 0.87391 -0.14768 0.40645
 C334 C 0.88672 -0.13003 0.42830
 C335 C 0.89888 -0.10478 0.41894
 C336 C 0.87003 -0.12496 0.31031
 C337 C 0.85762 -0.13965 0.29158
 C338 C 0.92345 -0.05222 0.40068
 C339 C 0.93371 -0.03691 0.42023
 H340 H 0.93307 -0.02370 0.35161
 H341 H 0.93207 -0.01133 0.29660
 H342 H 0.90929 -0.04266 0.25779
 H343 H 0.88737 -0.08657 0.27371
 H344 H 0.86296 -0.15466 0.35894
 H345 H 0.86451 -0.16728 0.41384
 H346 H 0.88726 -0.13592 0.45265
 H347 H 0.90860 -0.09177 0.43682
 C348 C 0.91262 0.07763 0.62797
 C349 C 0.93096 0.08986 0.65092
 C350 C 0.91856 0.10728 0.67444
 C351 C 0.88786 0.11224 0.67500
 C352 C 0.86958 0.10028 0.65179
 C353 C 0.88199 0.08296 0.62822
 C354 C 0.86324 0.07127 0.60531
 C355 C 0.83311 0.07651 0.60565
 C356 C 0.82098 0.09342 0.62867
 C357 C 0.83889 0.10520 0.65154
 C358 C 0.93736 0.11937 0.69702
 C359 C 0.96753 0.11427 0.69651
 C360 C 0.97961 0.09708 0.67370
 C361 C 0.96166 0.08505 0.65103
 C362 C 0.87481 0.12911 0.69967
 C363 C 0.86296 0.14265 0.71988
 C364 C 0.92511 0.05961 0.60402
 C365 C 0.93501 0.04472 0.58384
 H366 H 0.87161 0.05799 0.58689
 H367 H 0.81911 0.06740 0.58793
 H368 H 0.79756 0.09744 0.62883
 H369 H 0.82839 0.11825 0.66891
 H370 H 0.92895 0.13288 0.71521
 H371 H 0.98161 0.12373 0.71392
 H372 H 1.00305 0.09318 0.67344
 H373 H 0.97211 0.07198 0.63363
 C374 C 1.10292 -0.07251 0.59920
 C375 C 1.12801 -0.06188 0.61470
 C376 C 1.14311 -0.07861 0.63698
 C377 C 1.13299 -0.10585 0.64370
 C378 C 1.10806 -0.11656 0.62798
 C379 C 1.09300 -0.09987 0.60566
 C380 C 1.06799 -0.11100 0.59045
 C381 C 1.05812 -0.13780 0.59712
 C382 C 1.07282 -0.15409 0.61895
 C383 C 1.09752 -0.14372 0.63425
 C384 C 1.16803 -0.06747 0.65228
 C385 C 1.17770 -0.04054 0.64586
 C386 C 1.16289 -0.02416 0.62417
 C387 C 1.13832 -0.03461 0.60867
 C388 C 1.14777 -0.12268 0.66720
 C389 C 1.15958 -0.13684 0.68684
 C390 C 1.08642 -0.05503 0.57769
 C391 C 1.07146 -0.04098 0.56053
 H392 H 1.05581 -0.09917 0.57326
 H393 H 1.03895 -0.14596 0.58528
 H394 H 1.06504 -0.17489 0.62407
 H395 H 1.10822 -0.15722 0.65102
 H396 H 1.18027 -0.07941 0.66934
 H397 H 1.19679 -0.03233 0.65781
 H398 H 1.17047 -0.00325 0.61932
 H399 H 1.12754 -0.02112 0.59195
 C400 C 0.41281 1.10096 1.09727
 C401 C 0.40336 1.09575 1.12813
 C402 C 0.38158 1.11312 1.14195
 C403 C 0.36941 1.13561 1.12482
 C404 C 0.37996 1.14167 1.09456
 C405 C 0.40177 1.12431 1.08075
 C406 C 0.41171 1.13054 1.05032
 C407 C 0.40046 1.15333 1.03400
 C408 C 0.37907 1.17025 1.04746
 C409 C 0.36884 1.16458 1.07739
 C410 C 0.37209 1.10720 1.17264
 C411 C 0.38382 1.08479 1.18921
 C412 C 0.40513 1.06781 1.17569
 C413 C 0.41485 1.07312 1.14550
 C414 C 0.34483 1.15126 1.13762
 C415 C 0.32377 1.16319 1.14837
 C416 C 0.43160 1.08083 1.08158
 C417 C 0.44566 1.06316 1.06815
 H418 H 0.42834 1.11797 1.03891
 H419 H 0.40833 1.15781 1.01075
 H420 H 0.37035 1.18788 1.03465
 H421 H 0.35223 1.17837 1.08694
 H422 H 0.35560 1.11984 1.18417
 H423 H 0.37633 1.08058 1.21267
 H424 H 0.41417 1.05042 1.18867
 H425 H 0.43154 1.05939 1.13602
 C426 C 0.40438 0.89839 0.92733
 C427 C 0.37633 0.89471 0.94086
 C428 C 0.35511 0.87781 0.92559
 C429 C 0.36197 0.86500 0.89668
 C430 C 0.39061 0.86732 0.88415
 C431 C 0.41193 0.88399 0.89961
 C432 C 0.44036 0.88619 0.88658
 C433 C 0.44753 0.87231 0.85901
 C434 C 0.42664 0.85611 0.84380
 C435 C 0.39846 0.85359 0.85611
 C436 C 0.32719 0.87446 0.93952
 C437 C 0.32043 0.88751 0.96772
 C438 C 0.34109 0.90427 0.98249
 C439 C 0.36874 0.90795 0.96928
 C440 C 0.33912 0.85101 0.87895
 C441 C 0.31988 0.84017 0.86385
 C442 C 0.42438 0.91885 0.94033
 C443 C 0.44000 0.93701 0.95038
 H444 H 0.45735 0.89847 0.89766
 H445 H 0.46941 0.87416 0.84940
 H446 H 0.43231 0.84540 0.82237
 H447 H 0.38300 0.84065 0.84352
 H448 H 0.31041 0.86162 0.92889
 H449 H 0.29902 0.88462 0.97815
 H450 H 0.33574 0.91434 1.00440
 H451 H 0.38416 0.92101 0.98176
 C452 C 0.58214 0.88456 1.09046
 C453 C 0.58431 0.88412 1.12339
 C454 C 0.60665 0.86797 1.13804
 C455 C 0.62661 0.85232 1.11965
 C456 C 0.62325 0.85138 1.08683
 C457 C 0.60092 0.86755 1.07219
 C458 C 0.59832 0.86671 1.03930
 C459 C 0.61721 0.85031 1.02137
 C460 C 0.63906 0.83450 1.03569
 C461 C 0.64216 0.83497 1.06803
 C462 C 0.60881 0.86834 1.17097
 C463 C 0.58938 0.88414 1.18892
 C464 C 0.56750 0.89989 1.17459
 C465 C 0.56491 0.89999 1.14220
 C466 C 0.65178 0.83889 1.13422
 C467 C 0.67330 0.82861 1.14603
 C468 C 0.56307 0.90480 1.07536
 C469 C 0.54897 0.92290 1.06276
 H470 H 0.58159 0.87858 1.02715
 H471 H 0.61488 0.84986 0.99624
 H472 H 0.65369 0.82181 1.02165
 H473 H 0.65944 0.82228 1.07811
 H474 H 0.62544 0.85637 1.18316
 H475 H 0.59132 0.88417 1.21409
 H476 H 0.55245 0.91211 1.18864
 H477 H 0.54749 0.91248 1.13208
 C478 C 0.60205 1.08829 0.93013
 C479 C 0.60816 1.11476 0.94325
 C480 C 0.63101 1.13141 0.93060
 C481 C 0.64739 1.12158 0.90472
 C482 C 0.64126 1.09507 0.89162
 C483 C 0.61858 1.07836 0.90438
 C484 C 0.61312 1.05177 0.89108
 C485 C 0.62955 1.04200 0.86591
 C486 C 0.65170 1.05836 0.85341
 C487 C 0.65757 1.08460 0.86599
 C488 C 0.63710 1.15756 0.94448
 C489 C 0.62113 1.16698 0.97015
 C490 C 0.59874 1.15073 0.98244
 C491 C 0.59220 1.12492 0.96919
 C492 C 0.67071 1.13843 0.89152
 C493 C 0.69028 1.15154 0.87966
 C494 C 0.57996 1.07037 0.94382
 C495 C 0.56302 1.05354 0.95419
 H496 H 0.59616 1.03819 0.89993
 H497 H 0.62507 1.02162 0.85608
 H498 H 0.66444 1.05067 0.83387
 H499 H 0.67508 1.09647 0.85545
 H500 H 0.65433 1.17090 0.93574
 H501 H 0.62615 1.18699 0.98056
 H502 H 0.58643 1.15813 1.00241
 H503 H 0.57471 1.11293 0.97962
 C504 C 0.10149 0.40559 0.07912
 C505 C 0.08722 0.37977 0.08427
 C506 C 0.10209 0.35798 0.10034
 C507 C 0.13129 0.36194 0.11086
 C508 C 0.14568 0.38762 0.10538
 C509 C 0.13066 0.40957 0.08962
 C510 C 0.14528 0.43516 0.08483
 C511 C 0.17404 0.43897 0.09518
 C512 C 0.18881 0.41747 0.11037
 C513 C 0.17490 0.39204 0.11546
 C514 C 0.08716 0.33256 0.10562
 C515 C 0.05841 0.32875 0.09527
 C516 C 0.04395 0.34995 0.07934
 C517 C 0.05805 0.37518 0.07383
 C518 C 0.14629 0.33953 0.12739
 C519 C 0.15806 0.32043 0.14090
 C520 C 0.08545 0.42789 0.06362
 C521 C 0.06939 0.44442 0.05094
 H522 H 0.13465 0.45244 0.07310
 H523 H 0.18492 0.45870 0.09138
 H524 H 0.21117 0.42052 0.11829
 H525 H 0.18727 0.37593 0.12738
 H526 H 0.09747 0.31539 0.11785
 H527 H 0.04731 0.30921 0.09960
 H528 H 0.02165 0.34686 0.07124
 H529 H 0.04577 0.39097 0.06133
 C530 C -0.10454 0.41053 -0.07474
 C531 C -0.10789 0.38602 -0.05672
 C532 C -0.12374 0.36299 -0.06905
 C533 C -0.13594 0.36450 -0.09942
 C534 C -0.13386 0.38951 -0.11676
 C535 C -0.11813 0.41261 -0.10436
 C536 C -0.11592 0.43723 -0.12230
 C537 C -0.12893 0.43902 -0.15169
 C538 C -0.14431 0.41646 -0.16382
 C539 C -0.14681 0.39192 -0.14667
 C540 C -0.12655 0.33863 -0.05074
 C541 C -0.11382 0.33695 -0.02121
 C542 C -0.09801 0.35932 -0.00931
 C543 C -0.09512 0.38368 -0.02668
 C544 C -0.14900 0.33982 -0.11346
 C545 C -0.15909 0.31902 -0.12516
 C546 C -0.08466 0.43218 -0.06407
 C547 C -0.06638 0.44842 -0.05494
 H548 H -0.10424 0.45534 -0.11376
 H549 H -0.12705 0.45802 -0.16511
 H550 H -0.15437 0.41796 -0.18666
 H551 H -0.15905 0.37494 -0.15704
 H552 H -0.13861 0.32065 -0.05902
 H553 H -0.11614 0.31814 -0.00753
 H554 H -0.08794 0.35780 0.01351
 H555 H -0.08283 0.40061 -0.01627
 C556 C 0.09820 0.59963 -0.10399
 C557 C 0.08561 0.62672 -0.10489
 C558 C 0.10029 0.64857 -0.12077
 C559 C 0.12747 0.64323 -0.13569
 C560 C 0.13980 0.61605 -0.13526
 C561 C 0.12510 0.59417 -0.11937
 C562 C 0.13783 0.56721 -0.11919
 C563 C 0.16436 0.56196 -0.13432
 C564 C 0.17876 0.58334 -0.14983
 C565 C 0.16673 0.61012 -0.15035
 C566 C 0.08732 0.67548 -0.12121
 C567 C 0.06065 0.68066 -0.10635
 C568 C 0.04632 0.65933 -0.09076
 C569 C 0.05849 0.63262 -0.09004
 C570 C 0.14308 0.66597 -0.15056
 C571 C 0.15589 0.68532 -0.16211
 C572 C 0.08333 0.57776 -0.08689
 C573 C 0.06933 0.56111 -0.07213
 H574 H 0.12740 0.54994 -0.10743
 H575 H 0.17379 0.54119 -0.13401
 H576 H 0.19936 0.57914 -0.16154
 H577 H 0.17871 0.62607 -0.16275
 H578 H 0.09760 0.69278 -0.13304
 H579 H 0.05104 0.70136 -0.10694
 H580 H 0.02559 0.66345 -0.07927
 H581 H 0.04635 0.61673 -0.07774
 C582 C -0.08830 0.59935 0.07880
 C583 C -0.07449 0.61586 0.10202
 C584 C -0.09034 0.63780 0.11677
 C585 C -0.11994 0.64305 0.10835
 C586 C -0.13401 0.62600 0.08584
 C587 C -0.11813 0.60406 0.07102
 C588 C -0.13266 0.58722 0.04873
 C589 C -0.16216 0.59174 0.04149
 C590 C -0.17764 0.61330 0.05580
 C591 C -0.16381 0.63035 0.07768
 C592 C -0.07603 0.65411 0.13979
 C593 C -0.04699 0.64871 0.14821
 C594 C -0.03154 0.62715 0.13395
 C595 C -0.04494 0.61096 0.11099
 C596 C -0.13568 0.66613 0.12273
 C597 C -0.14813 0.68558 0.13482
 C598 C -0.07125 0.57814 0.06262
 C599 C -0.05510 0.56154 0.05019
 H600 H -0.12146 0.57027 0.03692
 H601 H -0.17310 0.57843 0.02471
 H602 H -0.20052 0.61677 0.05000
 H603 H -0.17677 0.64681 0.08828
 H604 H -0.08714 0.67108 0.15163
 H605 H -0.03644 0.66129 0.16597
 H606 H -0.00903 0.62293 0.14071
 H607 H -0.03191 0.59448 0.10056
 C608 C 1.06783 0.09783 0.60479
 C609 C 1.09757 0.09102 0.61109
 C610 C 1.11321 0.10585 0.63448
 C611 C 1.09900 0.12739 0.65145
 C612 C 1.06945 0.13458 0.64470
 C613 C 1.05384 0.11978 0.62118
 C614 C 1.02432 0.12720 0.61484
 C615 C 1.01054 0.14865 0.63134
 C616 C 1.02573 0.16300 0.65450
 C617 C 1.05486 0.15614 0.66119
 C618 C 1.14282 0.09843 0.64063
 C619 C 1.15654 0.07693 0.62418
 C620 C 1.14124 0.06240 0.60131
 C621 C 1.11213 0.06928 0.59471
 C622 C 1.11472 0.14136 0.67642
 C623 C 1.12856 0.15199 0.69724
 C624 C 1.05149 0.08074 0.58298
 C625 C 1.03971 0.06447 0.56564
 H626 H 1.01162 0.11651 0.59713
 H627 H 0.98791 0.15402 0.62627
 H628 H 1.01487 0.17953 0.66736
 H629 H 1.06581 0.16790 0.67937
 H630 H 1.15570 0.10910 0.65819
 H631 H 1.17917 0.07151 0.62923
 H632 H 1.15198 0.04570 0.58858
 H633 H 1.10125 0.05739 0.57662
 C634 C 0.90976 -0.11140 0.57727
 C635 C 0.87926 -0.11561 0.57303
 C636 C 0.86403 -0.13433 0.59280
 C637 C 0.87944 -0.14869 0.61657
 C638 C 0.91034 -0.14624 0.61905
 C639 C 0.92557 -0.12753 0.59928
 C640 C 0.95640 -0.12495 0.60253
 C641 C 0.97174 -0.14049 0.62471
 C642 C 0.95682 -0.15879 0.64408
 C643 C 0.92646 -0.16169 0.64142
 C644 C 0.83341 -0.13779 0.58870
 C645 C 0.81829 -0.12321 0.56556
 C646 C 0.83321 -0.10491 0.54616
 C647 C 0.86336 -0.10104 0.54979
 C648 C 0.86332 -0.16351 0.64041
 C649 C 0.85022 -0.17448 0.66139
 C650 C 0.92419 -0.08848 0.56167
 C651 C 0.93612 -0.06855 0.55041
 H652 H 0.96895 -0.11107 0.58786
 H653 H 0.99532 -0.13830 0.62687
 H654 H 0.96883 -0.17081 0.66127
 H655 H 0.91580 -0.17627 0.65691
 H656 H 0.82093 -0.15190 0.60315
 H657 H 0.79487 -0.12614 0.56267
 H658 H 0.82136 -0.09367 0.52821
 H659 H 0.87410 -0.08671 0.53408
 C660 C 1.07308 -0.08599 0.39797
 C661 C 1.05989 -0.11067 0.38659
 C662 C 1.07530 -0.12788 0.36502
 C663 C 1.10376 -0.12022 0.35499
 C664 C 1.11724 -0.09588 0.36702
 C665 C 1.10185 -0.07871 0.38857
 C666 C 1.11565 -0.05427 0.39999
 C667 C 1.14383 -0.04706 0.39041
 C668 C 1.15890 -0.06389 0.36935
 C669 C 1.14587 -0.08804 0.35771
 C670 C 1.06160 -0.15236 0.35372
 C671 C 1.03346 -0.15962 0.36347
 C672 C 1.01838 -0.14276 0.38453
 C673 C 1.03134 -0.11853 0.39603
 C674 C 1.11876 -0.13657 0.33131
 C675 C 1.13144 -0.14934 0.31115
 C676 C 1.05683 -0.06719 0.41816
 C677 C 1.04457 -0.05008 0.43415
 H678 H 1.10489 -0.04049 0.41645
 H679 H 1.15402 -0.02831 0.39940
 H680 H 1.18080 -0.05820 0.36199
 H681 H 1.15851 -0.10045 0.34139
 H682 H 1.07248 -0.16612 0.33732
 H683 H 1.02331 -0.17843 0.35461
 H684 H 0.99653 -0.14849 0.39200
 H685 H 1.01880 -0.10606 0.41239
 C686 C 0.90255 0.11519 0.42052
 C687 C 0.87208 0.11916 0.42536
 C688 C 0.85562 0.13613 0.40451
 C689 C 0.86982 0.14905 0.37906
 C690 C 0.90066 0.14669 0.37557
 C691 C 0.91709 0.12967 0.39637
 C692 C 0.94782 0.12709 0.39205
 C693 C 0.96191 0.14098 0.36784
 C694 C 0.94584 0.15768 0.34751
 C695 C 0.91556 0.16056 0.35120
 C696 C 0.82507 0.13935 0.40936
 C697 C 0.81118 0.12626 0.43426
 C698 C 0.82730 0.10969 0.45471
 C699 C 0.85742 0.10607 0.45039
 C700 C 0.85267 0.16279 0.35502
 C701 C 0.83936 0.17332 0.33377
 C702 C 0.91831 0.09405 0.43798
 C703 C 0.93149 0.07544 0.45067
 H704 H 0.96127 0.11446 0.40739
 H705 H 0.98540 0.13874 0.36482
 H706 H 0.95689 0.16845 0.32876
 H707 H 0.90403 0.17385 0.33484
 H708 H 0.81168 0.15212 0.39409
 H709 H 0.78779 0.12899 0.43771
 H710 H 0.81643 0.09960 0.47404
 H711 H 0.86910 0.09310 0.46695
 C712 C 0.09110 0.39701 -0.09070
 C713 C 0.09756 0.39367 -0.12273
 C714 C 0.11548 0.37104 -0.13271
 C715 C 0.12675 0.35190 -0.11054
 C716 C 0.12155 0.35612 -0.07833
 C717 C 0.10365 0.37877 -0.06836
 C718 C 0.09846 0.38245 -0.03603
 C719 C 0.11072 0.36430 -0.01420
 C720 C 0.12825 0.34214 -0.02399
 C721 C 0.13363 0.33796 -0.05567
 C722 C 0.12143 0.36793 -0.16493
 C723 C 0.11005 0.38670 -0.18663
 C724 C 0.09249 0.40884 -0.17684
 C725 C 0.08621 0.41236 -0.14528
 C726 C 0.14173 0.32688 -0.12118
 C727 C 0.15281 0.30575 -0.13095
 C728 C 0.07047 0.41831 -0.08073
 C729 C 0.05297 0.43523 -0.07141
 H730 H 0.08505 0.39943 -0.02728
 H731 H 0.10661 0.36747 0.01043
 H732 H 0.13776 0.32812 -0.00694
 H733 H 0.14749 0.32050 -0.06218
 H734 H 0.13506 0.35110 -0.17366
 H735 H 0.11490 0.38407 -0.21117
 H736 H 0.08371 0.42337 -0.19378
 H737 H 0.07252 0.42993 -0.13875
 C738 C -0.07555 0.38383 0.08302
 C739 C -0.06319 0.36488 0.10468
 C740 C -0.08107 0.34400 0.11828
 C741 C -0.11113 0.34209 0.10992
 C742 C -0.12338 0.36082 0.08796
 C743 C -0.10558 0.38193 0.07465
 C744 C -0.11832 0.40056 0.05286
 C745 C -0.14770 0.39811 0.04411
 C746 C -0.16506 0.37735 0.05698
 C747 C -0.15318 0.35891 0.07875
 C748 C -0.06825 0.32531 0.13997
 C749 C -0.03858 0.32709 0.14779
 C750 C -0.02106 0.34743 0.13434
 C751 C -0.03312 0.36621 0.11307
 C752 C -0.12934 0.32093 0.12414
 C753 C -0.14376 0.30321 0.13667
 C754 C -0.05708 0.40450 0.06838
 C755 C -0.04162 0.42114 0.05548
 H756 H -0.10569 0.41702 0.04216
 H757 H -0.15701 0.41238 0.02719
 H758 H -0.18787 0.37551 0.05011
 H759 H -0.16755 0.34311 0.08815
 H760 H -0.08094 0.30908 0.15103
 H761 H -0.02913 0.31258 0.16436
 H762 H 0.00200 0.34870 0.14042
 H763 H -0.01860 0.38171 0.10329
 C764 C -0.07428 0.61920 -0.08262
 C765 C -0.10392 0.62273 -0.07343
 C766 C -0.12095 0.64490 -0.08613
 C767 C -0.10825 0.66331 -0.10799
 C768 C -0.07844 0.66005 -0.11677
 C769 C -0.06141 0.63791 -0.10407
 C770 C -0.03172 0.63494 -0.11341
 C771 C -0.01927 0.65328 -0.13473
 C772 C -0.03588 0.67501 -0.14704
 C773 C -0.06513 0.67846 -0.13826
 C774 C -0.15055 0.64802 -0.07667
 C775 C -0.16301 0.62965 -0.05537
 C776 C -0.14640 0.60788 -0.04310
 C777 C -0.11715 0.60441 -0.05185
 C778 C -0.12589 0.68504 -0.12235
 C779 C -0.13967 0.70307 -0.13543
 C780 C -0.05698 0.59623 -0.07033
 C781 C -0.04202 0.57741 -0.06053
 H782 H -0.01783 0.61845 -0.10438
 H783 H 0.00340 0.65063 -0.14174
 H784 H -0.02607 0.68927 -0.16351
 H785 H -0.07713 0.69570 -0.14850
 H786 H -0.16432 0.66464 -0.08561
 H787 H -0.18570 0.63229 -0.04839
 H788 H -0.15625 0.59354 -0.02681
 H789 H -0.10509 0.58721 -0.04159
 C790 C 0.08677 0.58912 0.10867
 C791 C 0.11476 0.58426 0.12207
 C792 C 0.13067 0.60681 0.13546
 C793 C 0.11847 0.63403 0.13528
 C794 C 0.09010 0.63871 0.12265
 C795 C 0.07420 0.61620 0.10932
 C796 C 0.04599 0.62148 0.09650
 C797 C 0.03392 0.64823 0.09679
 C798 C 0.04943 0.67023 0.10992
 C799 C 0.07718 0.66566 0.12273
 C800 C 0.15869 0.60152 0.14855
 C801 C 0.17067 0.57471 0.14841
 C802 C 0.15513 0.55268 0.13527
 C803 C 0.12747 0.55729 0.12219
 C804 C 0.13501 0.65745 0.14755
 C805 C 0.14749 0.67777 0.15742
 C806 C 0.07163 0.56704 0.09205
 C807 C 0.05826 0.55050 0.07638
 H808 H 0.03292 0.60504 0.08621
 H809 H 0.01236 0.65188 0.08686
 H810 H 0.03993 0.69097 0.11018
 H811 H 0.08835 0.68349 0.13266
 H812 H 0.17157 0.61801 0.15903
 H813 H 0.19214 0.57101 0.15854
 H814 H 0.16454 0.53190 0.13521
 H815 H 0.11615 0.53952 0.11229
 C816 C 0.40526 1.08084 0.89550
 C817 C 0.40219 1.08232 0.86270
 C818 C 0.38041 1.10001 0.84936
 C819 C 0.36184 1.11608 0.86893
 C820 C 0.36535 1.11507 0.90173
 C821 C 0.38706 1.09734 0.91506
 C822 C 0.38982 1.09636 0.94797
 C823 C 0.37169 1.11242 0.96710
 C824 C 0.35061 1.12990 0.95405
 C825 C 0.34737 1.13130 0.92176
 C826 C 0.37759 1.10101 0.81651
 C827 C 0.39577 1.08497 0.79738
 C828 C 0.41705 1.06766 0.81043
 C829 C 0.42033 1.06627 0.84272
 C830 C 0.33827 1.13268 0.85553
 C831 C 0.31809 1.14599 0.84494
 C832 C 0.42644 1.06194 0.90952
 C833 C 0.44302 1.04664 0.92327
 H834 H 0.40595 1.08318 0.95931
 H835 H 0.37400 1.11124 0.99219
 H836 H 0.33665 1.14241 0.96902
 H837 H 0.33064 1.14522 0.91272
 H838 H 0.36139 1.11420 0.80529
 H839 H 0.39333 1.08599 0.77229
 H840 H 0.43109 1.05524 0.79546
 H841 H 0.43719 1.05253 0.85183
 C842 C 0.37796 0.91992 1.08155
 C843 C 0.36076 0.92915 1.10707
 C844 C 0.33805 0.91191 1.11887
 C845 C 0.33258 0.88556 1.10501
 C846 C 0.34940 0.87657 1.07909
 C847 C 0.37232 0.89371 1.06748
 C848 C 0.38917 0.88408 1.04190
 C849 C 0.38324 0.85846 1.02784
 C850 C 0.36063 0.84185 1.03898
 C851 C 0.34390 0.85065 1.06440
 C852 C 0.32126 0.92157 1.14453
 C853 C 0.32672 0.94751 1.15807
 C854 C 0.34891 0.96436 1.14650
 C855 C 0.36582 0.95539 1.12132
 C856 C 0.31007 0.86767 1.11807
 C857 C 0.29130 0.85378 1.13024
 C858 C 0.40145 0.93744 1.06995
 C859 C 0.42084 0.95230 1.06070
 H860 H 0.40693 0.89630 1.03237
 H861 H 0.39616 0.85154 1.00810
 H862 H 0.35606 0.82201 1.02791
 H863 H 0.32661 0.83698 1.07233
 H864 H 0.30373 0.90927 1.15439
 H865 H 0.31365 0.95456 1.17764
 H866 H 0.35307 0.98449 1.15709
 H867 H 0.38285 0.96925 1.11321
 C868 C 0.61345 1.06980 1.09059
 C869 C 0.63156 1.08584 1.07076
 C870 C 0.65223 1.10473 1.08383
 C871 C 0.65484 1.10725 1.11663
 C872 C 0.63681 1.09112 1.13645
 C873 C 0.61602 1.07237 1.12339
 C874 C 0.59823 1.05647 1.14367
 C875 C 0.60095 1.05898 1.17593
 C876 C 0.62129 1.07729 1.18871
 C877 C 0.63906 1.09324 1.16932
 C878 C 0.66996 1.12069 1.06357
 C879 C 0.66757 1.11783 1.03130
 C880 C 0.64764 1.09910 1.01854
 C881 C 0.62963 1.08337 1.03791
 C882 C 0.67645 1.12591 1.13016
 C883 C 0.69441 1.14091 1.14219
 C884 C 0.59190 1.05090 1.07739
 C885 C 0.57366 1.03539 1.06678
 H886 H 0.58209 1.04191 1.13486
 H887 H 0.58719 1.04662 1.19109
 H888 H 0.62334 1.07916 1.21379
 H889 H 0.65453 1.10721 1.18040
 H890 H 0.68586 1.13546 1.07244
 H891 H 0.68135 1.13013 1.01612
 H892 H 0.64615 1.09672 0.99349
 H893 H 0.61434 1.06919 1.02686
 C894 C 0.60147 0.92166 0.88658
 C895 C 0.59486 0.89415 0.87684
 C896 C 0.61710 0.87727 0.86309
 C897 C 0.64577 0.88803 0.85914
 C898 C 0.65205 0.91592 0.86781
 C899 C 0.62980 0.93281 0.88150
 C900 C 0.63656 0.96061 0.89004
 C901 C 0.66455 0.97142 0.88520
 C902 C 0.68635 0.95488 0.87189
 C903 C 0.68031 0.92743 0.86328
 C904 C 0.61004 0.84975 0.85375
 C905 C 0.58179 0.83927 0.85774
 C906 C 0.56004 0.85581 0.87115
 C907 C 0.56639 0.88294 0.88068
 C908 C 0.66887 0.87034 0.84659
 C909 C 0.68824 0.85581 0.83629
 C910 C 0.57971 0.93792 0.90339
 C911 C 0.56214 0.95119 0.91831
 H912 H 0.62031 0.97433 0.90037
 H913 H 0.66933 0.99273 0.89182
 H914 H 0.70806 0.96336 0.86820
 H915 H 0.69799 0.91540 0.85298
 H916 H 0.62621 0.83610 0.84318
 H917 H 0.57675 0.81821 0.85037
 H918 H 0.53812 0.84759 0.87417
 H919 H 0.54872 0.89504 0.89090
   
