data_POSCAR
  _audit_creation_date              2014-09-24
  _audit_creation_method            'ToBaCCo'
  _symmetry_space_group_name_H-M    'P1'
  _symmetry_Int_Tables_number       1
  _symmetry_cell_setting            triclinic
  loop_
  _symmetry_equiv_pos_as_xyz
 x,y,z
_cell_length_a 27.2854
_cell_length_b 27.2571
_cell_length_c 27.0742
_cell_angle_alpha 90.170300
_cell_angle_beta 89.974500
_cell_angle_gamma 89.508800
loop_
  _atom_site_label
  _atom_site_type_symbol
  _atom_site_fract_x
  _atom_site_fract_y
  _atom_site_fract_z
C1 C 0.39053 1.04122 -0.54457
 C2 C 0.36780 1.04906 -0.49868
 C3 C 0.39385 1.04845 -0.45440
 C4 C 0.44524 1.04213 -0.45536
 C5 C 0.46960 1.03384 -0.50098
 C6 C 0.44232 1.03340 -0.54581
 C7 C 0.46812 1.02795 -0.59045
 C8 C 0.51844 1.02004 -0.59111
 C9 C 0.54650 1.02143 -0.54751
 C10 C 0.52154 1.02690 -0.50172
 C11 C 0.47303 1.04603 -0.41203
 C12 C 0.52339 1.03872 -0.41273
 C13 C 0.54825 1.02606 -0.45662
 C14 C 0.59958 1.01618 -0.45707
 C15 C 0.62343 1.01173 -0.50294
 C16 C 0.59845 1.01556 -0.54823
 H17 H 0.45012 1.03036 -0.62585
 H18 H 0.53477 1.01246 -0.62667
 H19 H 0.45618 1.05579 -0.37713
 H20 H 0.54262 1.04451 -0.37837
 H21 H 0.32818 1.05244 -0.49685
 H22 H 0.66273 1.00556 -0.50342
 C23 C -0.60332 1.44484 0.01243
 C24 C -0.63000 1.48836 0.01885
 C25 C -0.60771 1.53474 0.01797
 C26 C -0.55570 1.53681 0.01278
 C27 C -0.52826 1.49283 0.00486
 C28 C -0.55223 1.44683 0.00444
 C29 C -0.52452 1.40397 -0.00409
 C30 C -0.47406 1.40580 -0.01014
 C31 C -0.44921 1.45074 -0.00943
 C32 C -0.47649 1.49472 -0.00175
 C33 C -0.52981 1.58088 0.01904
 C34 C -0.47925 1.58271 0.01271
 C35 C -0.45196 1.54037 0.00080
 C36 C -0.40046 1.54202 -0.00613
 C37 C -0.37423 1.49815 -0.01329
 C38 C -0.39764 1.45271 -0.01473
 H39 H -0.54146 1.36831 -0.00604
 H40 H -0.45485 1.37130 -0.01502
 H41 H -0.54806 1.61439 0.03041
 H42 H -0.46168 1.61767 0.01849
 H43 H -0.66947 1.48571 0.02240
 H44 H -0.33476 1.49933 -0.01789
 C45 C 0.01752 0.44998 0.39425
 C46 C 0.01012 0.49516 0.37032
 C47 C -0.00049 0.53828 0.39620
 C48 C -0.00395 0.53721 0.44820
 C49 C 0.00555 0.49279 0.47382
 C50 C 0.01701 0.44919 0.44696
 C51 C 0.03188 0.40745 0.47367
 C52 C 0.03115 0.40694 0.52504
 C53 C 0.01580 0.44827 0.55237
 C54 C 0.00521 0.49244 0.52651
 C55 C -0.01558 0.57971 0.47529
 C56 C -0.01761 0.57895 0.52642
 C57 C -0.00489 0.53654 0.55308
 C58 C -0.00423 0.53639 0.60553
 C59 C 0.00460 0.49201 0.62999
 C60 C 0.01459 0.44795 0.60491
 H61 H 0.04602 0.37506 0.45525
 H62 H 0.04441 0.37407 0.54303
 H63 H -0.02335 0.61429 0.45743
 H64 H -0.02951 0.61230 0.54461
 H65 H 0.01013 0.49686 0.33029
 H66 H 0.00411 0.49185 0.67005
 O67 O -0.12757 0.99577 -0.06988
 O68 O 0.12549 0.99457 -0.06713
 O69 O -0.00367 1.06171 -0.12663
 O70 O 0.00269 0.93001 -0.12983
 O71 O 0.00225 0.86914 -0.07103
 O72 O -0.00499 1.12063 -0.06540
 O73 O 0.06596 0.99631 -0.12761
 O74 O -0.06611 0.99782 -0.12836
 Zr75 Zr -0.00063 0.99517 -0.08774
 O76 O 0.04468 0.95044 -0.04690
 O77 O -0.04654 1.03844 -0.04525
 C78 C -0.11180 0.99850 -0.11518
 C79 C 0.11124 0.99563 -0.11282
 C80 C -0.00521 1.10681 -0.11142
 C81 C 0.00336 0.88439 -0.11636
 H82 H 0.06286 1.06072 -0.06497
 O83 O 0.04243 1.03908 -0.04438
 H84 H -0.06531 0.92907 -0.06887
 O85 O -0.04492 0.94985 -0.04720
 O86 O 0.12459 0.99473 0.06626
 O87 O -0.12849 0.99003 0.06521
 O88 O 0.06197 1.12028 0.00248
 O89 O 0.06733 0.86846 -0.00561
 O90 O -0.06489 0.86718 -0.00120
 O91 O -0.06928 1.11908 0.00141
 O92 O -0.00196 1.05675 0.12759
 O93 O -0.00221 0.92384 0.12394
 O94 O -0.00098 1.11769 0.06876
 O95 O 0.00067 0.86607 0.06158
 O96 O 0.12368 1.06190 0.00251
 O97 O -0.12911 1.05977 -0.00227
 O98 O -0.12679 0.92544 -0.00170
 O99 O 0.12631 0.92855 -0.00406
 O100 O 0.06427 0.99378 0.12602
 O101 O -0.06812 0.98741 0.12494
 Zr102 Zr 0.08523 0.99459 -0.00069
 Zr103 Zr -0.08850 0.99287 -0.00199
 Zr104 Zr -0.00298 1.07942 0.00083
 Zr105 Zr 0.00035 0.90778 -0.00353
 Zr106 Zr -0.00184 0.99146 0.08546
 O107 O -0.04547 0.94790 0.04186
 O108 O 0.04212 1.03747 0.04495
 C109 C 0.10972 0.99502 0.11179
 C110 C -0.11353 0.98722 0.11077
 C111 C 0.10770 1.10700 0.00283
 C112 C 0.11252 0.88307 -0.00567
 C113 C -0.11068 0.88041 -0.00016
 C114 C -0.11451 1.10506 -0.00011
 C115 C -0.00062 1.10240 0.11416
 C116 C -0.00055 0.87896 0.10766
 H117 H -0.06798 1.05650 0.06581
 O118 O -0.04688 1.03617 0.04406
 H119 H 0.06497 0.92785 0.06304
 O120 O 0.04369 0.94895 0.04239
 C121 C 0.32188 1.07532 0.40820
 C122 C 0.28827 1.07243 0.36959
 C123 C 0.29148 1.03452 0.33500
 C124 C 0.32896 0.99913 0.33931
 C125 C 0.36239 1.00155 0.37844
 C126 C 0.35973 1.04008 0.41328
 N127 N 0.25502 1.03196 0.29719
 N128 N 0.25882 1.00353 0.26004
 C129 C 0.22091 1.00110 0.22361
 C130 C 0.23104 0.97931 0.17786
 C131 C 0.19494 0.97747 0.14131
 C132 C 0.14773 0.99651 0.15049
 C133 C 0.13735 1.01751 0.19679
 C134 C 0.17374 1.02016 0.23293
 H135 H 0.31841 1.10555 0.43409
 H136 H 0.25939 1.09978 0.36671
 H137 H 0.33144 0.96886 0.31343
 H138 H 0.38888 0.97204 0.38260
 H139 H 0.26717 0.96433 0.17033
 H140 H 0.20380 0.96077 0.10602
 H141 H 0.10135 1.03265 0.20474
 H142 H 0.16495 1.03689 0.26819
 C143 C -0.38068 1.04867 0.36961
 C144 C -0.35219 1.04720 0.32661
 C145 C -0.31499 1.01202 0.32099
 C146 C -0.30658 0.97808 0.35909
 C147 C -0.33522 0.97920 0.40186
 C148 C -0.37340 1.01398 0.40760
 N149 N -0.28545 1.01207 0.27712
 N150 N -0.24760 0.98470 0.27334
 C151 C -0.21648 0.98389 0.23074
 C152 C -0.17118 0.95993 0.23435
 C153 C -0.13831 0.96044 0.19494
 C154 C -0.15053 0.98417 0.15054
 C155 C -0.19684 1.00678 0.14613
 C156 C -0.22951 1.00707 0.18620
 H157 H -0.40770 1.07776 0.37362
 H158 H -0.35853 1.07415 0.29795
 H159 H -0.27798 0.95049 0.35578
 H160 H -0.32829 0.95177 0.42993
 H161 H -0.16083 0.94180 0.26837
 H162 H -0.10303 0.94254 0.19936
 H163 H -0.20706 1.02553 0.11241
 H164 H -0.26456 1.02562 0.18256
 C165 C -0.38837 0.98200 -0.37335
 C166 C -0.36023 0.97738 -0.33033
 C167 C -0.31476 1.00040 -0.32659
 C168 C -0.29749 1.02782 -0.36680
 C169 C -0.32556 1.03267 -0.40963
 C170 C -0.37202 1.01071 -0.41337
 N171 N -0.28642 0.99532 -0.28218
 N172 N -0.24351 1.01305 -0.27947
 C173 C -0.21272 1.00956 -0.23682
 C174 C -0.16443 1.02527 -0.24133
 C175 C -0.13224 1.02178 -0.20165
 C176 C -0.14780 1.00299 -0.15597
 C177 C -0.19682 0.98812 -0.15090
 C178 C -0.22911 0.99104 -0.19128
 H179 H -0.42266 0.96239 -0.37560
 H180 H -0.37370 0.95547 -0.30000
 H181 H -0.26240 1.04597 -0.36507
 H182 H -0.31151 1.05529 -0.43916
 H183 H -0.15149 1.03978 -0.27614
 H184 H -0.09494 1.03389 -0.20690
 H185 H -0.20984 0.97344 -0.11621
 H186 H -0.26653 0.97889 -0.18699
 C187 C 0.33008 1.08818 -0.40076
 C188 C 0.29729 1.08614 -0.36123
 C189 C 0.29893 1.04678 -0.32823
 C190 C 0.33479 1.00993 -0.33429
 C191 C 0.36725 1.01163 -0.37418
 C192 C 0.36486 1.05055 -0.40802
 N193 N 0.26186 1.04347 -0.29105
 N194 N 0.26365 1.01176 -0.25670
 C195 C 0.22491 1.00742 -0.22140
 C196 C 0.23351 0.98179 -0.17752
 C197 C 0.19644 0.97760 -0.14218
 C198 C 0.14978 0.99803 -0.15090
 C199 C 0.14084 1.02264 -0.19554
 C200 C 0.17822 1.02769 -0.23034
 H201 H 0.32730 1.11825 -0.42671
 H202 H 0.26969 1.11463 -0.35700
 H203 H 0.33646 0.97892 -0.30944
 H204 H 0.39301 0.98166 -0.37974
 H205 H 0.26924 0.96571 -0.17041
 H206 H 0.20417 0.95827 -0.10813
 H207 H 0.10529 1.03900 -0.20300
 H208 H 0.17060 1.04721 -0.26429
 C209 C 0.37820 1.36226 0.04897
 C210 C 0.35028 1.31941 0.05029
 C211 C 0.31222 1.31239 0.01637
 C212 C 0.30315 1.34831 -0.01979
 C213 C 0.33138 1.39072 -0.02151
 C214 C 0.36904 1.39814 0.01288
 N215 N 0.28219 1.26962 0.02002
 N216 N 0.24213 1.26688 -0.00380
 C217 C 0.21016 1.22562 -0.00167
 C218 C 0.16343 1.23066 -0.02209
 C219 C 0.13039 1.19206 -0.02025
 C220 C 0.14378 1.14710 0.00142
 C221 C 0.19117 1.14154 0.02115
 C222 C 0.22412 1.18080 0.02005
 H223 H 0.40664 1.36771 0.07629
 H224 H 0.35752 1.29219 0.07846
 H225 H 0.27408 1.34376 -0.04657
 H226 H 0.32361 1.41806 -0.04946
 H227 H 0.15241 1.26494 -0.03910
 H228 H 0.09438 1.19731 -0.03632
 H229 H 0.20238 1.10727 0.03804
 H230 H 0.26029 1.17613 0.03584
 C231 C 0.32010 0.57759 0.05195
 C232 C 0.28692 0.61681 0.05153
 C233 C 0.29381 0.65645 0.01984
 C234 C 0.33474 0.65670 -0.01160
 C235 C 0.36785 0.61712 -0.01169
 C236 C 0.36128 0.57688 0.02033
 N237 N 0.25750 0.69468 0.01909
 N238 N 0.26320 0.73498 -0.00376
 C239 C 0.22512 0.77156 -0.00467
 C240 C 0.23589 0.81911 -0.02053
 C241 C 0.19941 0.85557 -0.02090
 C242 C 0.15123 0.84466 -0.00628
 C243 C 0.14040 0.79661 0.00871
 C244 C 0.17701 0.76053 0.00987
 H245 H 0.31370 0.54794 0.07765
 H246 H 0.25545 0.61621 0.07592
 H247 H 0.34031 0.68666 -0.03709
 H248 H 0.39732 0.61711 -0.03849
 H249 H 0.27275 0.82806 -0.03203
 H250 H 0.20883 0.89217 -0.03288
 H251 H 0.10374 0.78700 0.02029
 H252 H 0.16762 0.72395 0.02191
 C253 C -0.38319 0.62627 -0.03946
 C254 C -0.35497 0.66896 -0.04036
 C255 C -0.31497 0.67418 -0.00842
 C256 C -0.30412 0.63646 0.02531
 C257 C -0.33260 0.59411 0.02661
 C258 C -0.37235 0.58856 -0.00577
 N259 N -0.28506 0.71714 -0.01172
 N260 N -0.24436 0.71973 0.01104
 C261 C -0.21275 0.76135 0.00860
 C262 C -0.16561 0.75685 0.02826
 C263 C -0.13278 0.79566 0.02541
 C264 C -0.14675 0.84030 0.00341
 C265 C -0.19461 0.84538 -0.01533
 C266 C -0.22733 0.80597 -0.01316
 H267 H -0.41315 0.62239 -0.06537
 H268 H -0.36363 0.69755 -0.06671
 H269 H -0.27348 0.63954 0.05049
 H270 H -0.32342 0.56542 0.05271
 H271 H -0.15404 0.72276 0.04529
 H272 H -0.09639 0.79076 0.04072
 H273 H -0.20631 0.87934 -0.03251
 H274 H -0.26377 0.81030 -0.02842
 C275 C -0.36955 1.37659 -0.05985
 C276 C -0.34127 1.33349 -0.06188
 C277 C -0.30908 1.32163 -0.02333
 C278 C -0.30538 1.35366 0.01736
 C279 C -0.33391 1.39637 0.01960
 C280 C -0.36658 1.40792 -0.01866
 N281 N -0.28014 1.27749 -0.02622
 N282 N -0.24670 1.26870 0.00537
 C283 C -0.21622 1.22571 0.00447
 C284 C -0.17467 1.22506 0.03455
 C285 C -0.14233 1.18526 0.03340
 C286 C -0.15152 1.14469 0.00278
 C287 C -0.19425 1.14427 -0.02616
 C288 C -0.22628 1.18490 -0.02576
 H289 H -0.39424 1.38524 -0.08997
 H290 H -0.34428 1.30939 -0.09358
 H291 H -0.28074 1.34552 0.04763
 H292 H -0.33097 1.42021 0.05153
 H293 H -0.16673 1.25613 0.05816
 H294 H -0.10984 1.18628 0.05637
 H295 H -0.20191 1.11341 -0.05016
 H296 H -0.25850 1.18458 -0.04907
 C297 C 0.05151 1.40964 0.32044
 C298 C 0.05315 1.37014 0.28762
 C299 C 0.02691 1.32752 0.29733
 C300 C -0.00040 1.32424 0.34117
 C301 C -0.00231 1.36394 0.37415
 C302 C 0.02345 1.40752 0.36420
 N303 N 0.02676 1.28953 0.26069
 N304 N 0.00652 1.24817 0.26724
 C305 C 0.00553 1.21194 0.22874
 C306 C -0.01027 1.16446 0.23956
 C307 C -0.01202 1.12863 0.20248
 C308 C 0.00131 1.14005 0.15365
 C309 C 0.01685 1.18789 0.14288
 C310 C 0.01919 1.22341 0.18007
 H311 H 0.07255 1.44196 0.31154
 H312 H 0.07439 1.37305 0.25396
 H313 H -0.02153 1.29178 0.34912
 H314 H -0.02612 1.36138 0.40604
 H315 H -0.02109 1.15518 0.27684
 H316 H -0.02433 1.09218 0.21194
 H317 H 0.02765 1.19781 0.10575
 H318 H 0.03127 1.25993 0.17065
 C319 C 0.05050 1.40809 -0.32262
 C320 C 0.05169 1.36948 -0.28908
 C321 C 0.02435 1.32734 -0.29767
 C322 C -0.00286 1.32316 -0.34155
 C323 C -0.00417 1.36195 -0.37537
 C324 C 0.02181 1.40547 -0.36590
 N325 N 0.02283 1.29089 -0.25983
 N326 N 0.00014 1.25066 -0.26488
 C327 C -0.00211 1.21572 -0.22560
 C328 C -0.01855 1.16840 -0.23585
 C329 C -0.02002 1.13318 -0.19857
 C330 C -0.00593 1.14506 -0.15001
 C331 C 0.00939 1.19303 -0.13949
 C332 C 0.01163 1.22803 -0.17706
 H333 H 0.07169 1.44054 -0.31433
 H334 H 0.07299 1.37295 -0.25553
 H335 H -0.02455 1.29086 -0.34876
 H336 H -0.02802 1.35905 -0.40720
 H337 H -0.02946 1.15857 -0.27301
 H338 H -0.03200 1.09657 -0.20788
 H339 H 0.02070 1.20321 -0.10255
 H340 H 0.02408 1.26461 -0.16818
 C341 C -0.04047 0.57742 -0.32250
 C342 C -0.04295 0.61715 -0.29010
 C343 C -0.01563 0.65923 -0.29900
 C344 C 0.01384 0.66176 -0.34144
 C345 C 0.01661 0.62183 -0.37395
 C346 C -0.01054 0.57896 -0.36494
 N347 N -0.01661 0.69748 -0.26282
 N348 N 0.00450 0.73846 -0.26881
 C349 C 0.00407 0.77473 -0.23046
 C350 C 0.02010 0.82223 -0.24074
 C351 C 0.01986 0.85817 -0.20374
 C352 C 0.00426 0.84670 -0.15563
 C353 C -0.01122 0.79878 -0.14536
 C354 C -0.01157 0.76321 -0.18244
 H355 H -0.06219 0.54534 -0.31437
 H356 H -0.06570 0.61486 -0.25740
 H357 H 0.03587 0.69380 -0.34859
 H358 H 0.04182 0.62364 -0.40479
 H359 H 0.03246 0.83147 -0.27755
 H360 H 0.03222 0.89474 -0.21266
 H361 H -0.02369 0.78887 -0.10877
 H362 H -0.02381 0.72663 -0.17345
 C363 C -0.05027 0.60991 0.36493
 C364 C -0.05442 0.65237 0.33621
 C365 C -0.01453 0.66847 0.30820
 C366 C 0.03001 0.64223 0.31006
 C367 C 0.03442 0.60046 0.33936
 C368 C -0.00559 0.58400 0.36708
 N369 N -0.02007 0.71054 0.27706
 N370 N 0.01020 0.71832 0.24227
 C371 C 0.00690 0.75962 0.21005
 C372 C 0.03288 0.75783 0.16564
 C373 C 0.03012 0.79672 0.13250
 C374 C 0.00220 0.83879 0.14384
 C375 C -0.02293 0.84130 0.18909
 C376 C -0.02112 0.80159 0.22185
 H377 H -0.08179 0.59719 0.38542
 H378 H -0.08901 0.67209 0.33486
 H379 H 0.06142 0.65401 0.28887
 H380 H 0.06903 0.58071 0.34028
 H381 H 0.05479 0.72578 0.15638
 H382 H 0.05026 0.79411 0.09810
 H383 H -0.04461 0.87339 0.19859
 H384 H -0.04114 0.80377 0.25633
   
