data_POSCAR
  _audit_creation_date              2014-09-24
  _audit_creation_method            'ToBaCCo'
  _symmetry_space_group_name_H-M    'P1'
  _symmetry_Int_Tables_number       1
  _symmetry_cell_setting            triclinic
  loop_
  _symmetry_equiv_pos_as_xyz
 x,y,z
_cell_length_a 32.0119
_cell_length_b 31.1274
_cell_length_c 31.1086
_cell_angle_alpha 89.881600
_cell_angle_beta 89.600800
_cell_angle_gamma 89.445600
loop_
  _atom_site_label
  _atom_site_type_symbol
  _atom_site_fract_x
  _atom_site_fract_y
  _atom_site_fract_z
N1 N 0.67252 0.67404 0.66849
 N2 N 0.83674 0.32164 0.17276
 N3 N 0.34240 0.17882 -0.17415
 N4 N 0.13473 0.86657 0.36430
 N5 N 0.05107 0.16432 0.08643
 N6 N 0.03597 0.13682 0.11453
 C7 C 0.00182 0.15399 0.13351
 C8 C -0.00473 0.19424 0.11618
 C9 C 0.02687 0.19999 0.08636
 H10 H -0.01665 0.13848 0.15820
 H11 H 0.03186 0.22785 0.06621
 Cu12 Cu 0.06297 0.08179 0.12472
 Cu13 Cu 0.10020 0.15063 0.05155
 Cu14 Cu 0.15805 0.06128 0.08338
 N15 N 0.09935 0.03824 0.14923
 N16 N 0.13712 0.03080 0.13387
 C17 C 0.15596 0.00050 0.15823
 C18 C 0.12829 -0.01125 0.19033
 C19 C 0.09283 0.01322 0.18385
 H20 H 0.18746 -0.01151 0.15334
 H21 H 0.06479 0.01358 0.20347
 N22 N 0.17753 0.10196 0.03886
 N23 N 0.15543 0.13598 0.02685
 C24 C 0.17620 0.15663 -0.00467
 C25 C 0.21288 0.13454 -0.01270
 C26 C 0.21295 0.10009 0.01522
 H27 H 0.16513 0.18507 -0.02123
 H28 H 0.23657 0.07513 0.01743
 H29 H 0.10343 0.08460 0.05716
 H30 H 0.12667 0.11646 0.10135
 N31 N 0.44330 0.82008 0.60870
 N32 N 0.45339 0.84115 0.64371
 C33 C 0.48941 0.82499 0.65921
 C34 C 0.50232 0.79209 0.63255
 C35 C 0.47252 0.78959 0.60084
 H36 H 0.50494 0.83618 0.68780
 H37 H 0.47192 0.76713 0.57436
 Cu38 Cu 0.41874 0.88755 0.66632
 Cu39 Cu 0.39210 0.83291 0.57742
 Cu40 Cu 0.34077 0.92694 0.60647
 N41 N 0.39466 0.94406 0.67741
 N42 N 0.36465 0.95973 0.65316
 C43 C 0.35293 0.99855 0.66815
 C44 C 0.37699 1.00754 0.70349
 C45 C 0.40315 0.97245 0.70874
 H46 H 0.32804 1.01824 0.65508
 H47 H 0.42598 0.96760 0.73380
 N48 N 0.32593 0.89353 0.55528
 N49 N 0.34507 0.85735 0.54422
 C50 C 0.32641 0.84131 0.50901
 C51 C 0.29434 0.86896 0.49772
 C52 C 0.29481 0.90154 0.52748
 H53 H 0.33482 0.81141 0.49342
 H54 H 0.27324 0.92843 0.52934
 H55 H 0.39711 0.89685 0.59226
 H56 H 0.35822 0.86527 0.62357
 N57 N 0.93908 0.67807 0.38704
 N58 N 0.95850 0.65128 0.36085
 C59 C 0.99532 0.66842 0.34881
 C60 C 0.99868 0.70789 0.36863
 C61 C 0.96257 0.71318 0.39242
 H62 H 1.01764 0.65363 0.32703
 H63 H 0.95390 0.74055 0.41205
 Cu64 Cu 0.93228 0.59775 0.34394
 Cu65 Cu 0.88429 0.66603 0.41136
 Cu66 Cu 0.85842 0.55826 0.40960
 N67 N 0.90311 0.54499 0.33021
 N68 N 0.87441 0.52951 0.35631
 C69 C 0.85941 0.49290 0.33977
 C70 C 0.87962 0.48539 0.30122
 C71 C 0.90715 0.51885 0.29591
 H72 H 0.83524 0.47360 0.35444
 H73 H 0.92819 0.52393 0.26906
 N74 N 0.83235 0.59979 0.44945
 N75 N 0.84107 0.64117 0.44878
 C76 C 0.81805 0.66135 0.47910
 C77 C 0.79372 0.63118 0.49951
 C78 C 0.80337 0.59249 0.48016
 H79 H 0.81970 0.69523 0.48651
 H80 H 0.79052 0.56140 0.48798
 H81 H 0.90488 0.60478 0.41709
 H82 H 0.86369 0.61318 0.37566
 N83 N 0.55489 0.33641 -0.09607
 N84 N 0.54245 0.36198 -0.12728
 C85 C 0.50984 0.34406 -0.14736
 C86 C 0.50161 0.30539 -0.12751
 C87 C 0.53054 0.30138 -0.09508
 H88 H 0.49312 0.35827 -0.17403
 H89 H 0.53325 0.27536 -0.07214
 Cu90 Cu 0.56943 0.41656 -0.13834
 Cu91 Cu 0.60018 0.35188 -0.05787
 Cu92 Cu 0.65855 0.44036 -0.08784
 N93 N 0.60691 0.46026 -0.16032
 N94 N 0.64212 0.46910 -0.14081
 C95 C 0.66155 0.50091 -0.16218
 C96 C 0.63718 0.51224 -0.19685
 C97 C 0.60275 0.48603 -0.19489
 H98 H 0.69075 0.51521 -0.15278
 H99 H 0.57648 0.48607 -0.21657
 N100 N 0.67485 0.40144 -0.04062
 N101 N 0.65254 0.36771 -0.02921
 C102 C 0.67145 0.34771 0.00391
 C103 C 0.70711 0.36999 0.01359
 C104 C 0.70855 0.40377 -0.01503
 H105 H 0.66011 0.31921 0.01994
 H106 H 0.73225 0.42824 -0.01689
 H107 H 0.60192 0.41740 -0.06676
 H108 H 0.63103 0.38383 -0.10658
 C109 C -0.12916 0.29680 0.16009
 C110 C -0.09988 0.27457 0.14928
 C111 C -0.06618 0.24759 0.13707
 C112 C -0.03788 0.22371 0.12718
 C113 C 0.63671 0.69756 0.65899
 C114 C 0.60568 0.71843 0.65138
 C115 C 0.56951 0.74346 0.64355
 C116 C 0.53876 0.76537 0.63791
 C117 C 1.11004 0.83025 0.36285
 C118 C 1.08712 0.79973 0.36233
 C119 C 1.05817 0.76582 0.36303
 C120 C 1.03183 0.73847 0.36486
 C121 C 0.37664 0.20366 -0.16388
 C122 C 0.40602 0.22592 -0.15523
 C123 C 0.43984 0.25285 -0.14540
 C124 C 0.46827 0.27651 -0.13719
 C125 C 0.13803 -0.11081 0.32600
 C126 C 0.13932 -0.08999 0.29329
 C127 C 0.13822 -0.06398 0.25610
 C128 C 0.13498 -0.04052 0.22541
 C129 C 0.66505 0.63932 -0.30460
 C130 C 0.65864 0.60950 -0.28070
 C131 C 0.65120 0.57513 -0.25208
 C132 C 0.64484 0.54621 -0.22713
 C133 C 0.35235 1.14299 0.80124
 C134 C 0.36010 1.11184 0.77951
 C135 C 0.36765 1.07540 0.75358
 C136 C 0.37272 1.04436 0.73098
 C137 C 0.84727 0.35632 0.19832
 C138 C 0.85590 0.38627 0.22103
 C139 C 0.86513 0.42105 0.24831
 C140 C 0.87221 0.45052 0.27216
 C141 C 0.31708 0.16936 -0.13908
 C142 C 0.29448 0.16117 -0.10905
 C143 C 0.26707 0.15166 -0.07466
 C144 C 0.24283 0.14371 -0.04598
 C145 C 0.69637 0.66358 0.63254
 C146 C 0.71766 0.65496 0.60154
 C147 C 0.74338 0.64569 0.56564
 C148 C 0.76600 0.63857 0.53530
 C149 C 0.81064 0.33266 0.13900
 C150 C 0.78757 0.34184 0.10983
 C151 C 0.76006 0.35206 0.07599
 C152 C 0.73614 0.36042 0.04736
 C153 C 0.17097 0.86298 0.38826
 C154 C 0.20160 0.86122 0.41057
 C155 C 0.23583 0.86145 0.43892
 C156 C 0.26350 0.86370 0.46488
   
