data_POSCAR
  _audit_creation_date              2014-09-24
  _audit_creation_method            'ToBaCCo'
  _symmetry_space_group_name_H-M    'P1'
  _symmetry_Int_Tables_number       1
  _symmetry_cell_setting            triclinic
  loop_
  _symmetry_equiv_pos_as_xyz
 x,y,z
_cell_length_a 55.3983
_cell_length_b 55.5067
_cell_length_c 55.6660
_cell_angle_alpha 89.997000
_cell_angle_beta 89.991400
_cell_angle_gamma 90.001700
loop_
  _atom_site_label
  _atom_site_type_symbol
  _atom_site_fract_x
  _atom_site_fract_y
  _atom_site_fract_z
N1 N 0.28839 0.24006 0.22122
 N2 N 0.27836 0.25929 0.21166
 C3 C 0.29118 0.26596 0.19218
 C4 C 0.31018 0.25005 0.18949
 C5 C 0.30788 0.23385 0.20818
 H6 H 0.28717 0.28128 0.18088
 H7 H 0.31957 0.21873 0.21201
 Cu8 Cu 0.24990 0.27380 0.22616
 Cu9 Cu 0.27572 0.22451 0.25002
 Cu10 Cu 0.22353 0.24899 0.27407
 N11 N 0.22142 0.28833 0.24069
 N12 N 0.21148 0.27876 0.25991
 C13 C 0.19218 0.29199 0.26637
 C14 C 0.18991 0.31082 0.25030
 C15 C 0.20873 0.30800 0.23424
 H16 H 0.18046 0.28804 0.28141
 H17 H 0.21271 0.31935 0.21896
 N18 N 0.24014 0.22113 0.28848
 N19 N 0.25986 0.21162 0.27908
 C20 C 0.26646 0.19241 0.29233
 C21 C 0.25018 0.18979 0.31092
 C22 C 0.23377 0.20829 0.30801
 H23 H 0.28185 0.18101 0.28867
 H24 H 0.21822 0.21190 0.31920
 H25 H 0.24088 0.23478 0.24412
 H26 H 0.25911 0.25453 0.26426
 N27 N 0.71098 -0.24054 0.22099
 N28 N 0.72091 -0.25986 0.21150
 C29 C 0.70812 -0.26649 0.19199
 C30 C 0.68922 -0.25044 0.18918
 C31 C 0.69158 -0.23422 0.20789
 H32 H 0.71222 -0.28176 0.18063
 H33 H 0.68008 -0.21893 0.21163
 Cu34 Cu 0.74970 -0.27418 0.22559
 Cu35 Cu 0.72404 -0.22482 0.24946
 Cu36 Cu 0.77559 -0.24996 0.27450
 N37 N 0.77849 -0.28831 0.23986
 N38 N 0.78858 -0.27861 0.25894
 C39 C 0.80809 -0.29166 0.26515
 C40 C 0.81033 -0.31056 0.24912
 C41 C 0.79125 -0.30791 0.23329
 H42 H 0.81976 -0.28773 0.28022
 H43 H 0.78704 -0.31943 0.21819
 N44 N 0.75971 -0.22103 0.28766
 N45 N 0.74000 -0.21156 0.27823
 C46 C 0.73341 -0.19227 0.29138
 C47 C 0.74976 -0.18950 0.30990
 C48 C 0.76618 -0.20798 0.30703
 H49 H 0.71786 -0.18105 0.28785
 H50 H 0.78164 -0.21164 0.31832
 H51 H 0.75933 -0.23557 0.24426
 H52 H 0.74022 -0.25500 0.26389
 N53 N 0.71171 0.24036 0.77848
 N54 N 0.72160 0.25969 0.78796
 C55 C 0.70875 0.26632 0.80743
 C56 C 0.68987 0.25028 0.81021
 C57 C 0.69228 0.23405 0.79156
 H58 H 0.71274 0.28163 0.81878
 H59 H 0.68073 0.21880 0.78781
 Cu60 Cu 0.75031 0.27419 0.77384
 Cu61 Cu 0.72470 0.22476 0.74993
 Cu62 Cu 0.77581 0.25028 0.72450
 N63 N 0.77902 0.28838 0.75940
 N64 N 0.78889 0.27890 0.74009
 C65 C 0.80834 0.29202 0.73380
 C66 C 0.81080 0.31072 0.75005
 C67 C 0.79190 0.30787 0.76607
 H68 H 0.81984 0.28825 0.71856
 H69 H 0.78789 0.31918 0.78138
 N70 N 0.75995 0.22134 0.71135
 N71 N 0.74049 0.21163 0.72104
 C72 C 0.73402 0.19219 0.70806
 C73 C 0.75017 0.18957 0.68935
 C74 C 0.76637 0.20831 0.69194
 H75 H 0.71871 0.18073 0.71187
 H76 H 0.78167 0.21210 0.68049
 H77 H 0.75995 0.23578 0.75489
 H78 H 0.74049 0.25523 0.73556
 N79 N 0.28876 -0.24059 0.77889
 N80 N 0.27896 -0.26004 0.78824
 C81 C 0.29179 -0.26668 0.80773
 C82 C 0.31056 -0.25053 0.81063
 C83 C 0.30812 -0.23423 0.79205
 H84 H 0.28777 -0.28198 0.81907
 H85 H 0.31955 -0.21885 0.78843
 Cu86 Cu 0.25004 -0.27416 0.77415
 Cu87 Cu 0.27568 -0.22464 0.75049
 Cu88 Cu 0.22578 -0.25142 0.72417
 N89 N 0.22109 -0.28831 0.76002
 N90 N 0.21131 -0.27887 0.74064
 C91 C 0.19173 -0.29182 0.73444
 C92 C 0.18911 -0.31040 0.75081
 C93 C 0.20802 -0.30762 0.76684
 H94 H 0.18044 -0.28820 0.71901
 H95 H 0.21199 -0.31892 0.78216
 N96 N 0.24035 -0.22148 0.71178
 N97 N 0.25960 -0.21150 0.72165
 C98 C 0.26583 -0.19189 0.70881
 C99 C 0.24972 -0.18941 0.69005
 C100 C 0.23378 -0.20839 0.69247
 H101 H 0.28105 -0.18032 0.71265
 H102 H 0.21870 -0.21244 0.68083
 H103 H 0.24059 -0.23612 0.75474
 H104 H 0.26116 -0.25518 0.73623
 N105 N 0.71174 -0.24031 0.77871
 N106 N 0.72165 -0.25963 0.78818
 C107 C 0.70882 -0.26627 0.80766
 C108 C 0.68995 -0.25024 0.81046
 C109 C 0.69232 -0.23400 0.79180
 H110 H 0.71284 -0.28158 0.81899
 H111 H 0.68076 -0.21875 0.78807
 Cu112 Cu 0.75032 -0.27414 0.77406
 Cu113 Cu 0.72469 -0.22473 0.75014
 Cu114 Cu 0.77576 -0.25025 0.72466
 N115 N 0.77899 -0.28828 0.75957
 N116 N 0.78883 -0.27882 0.74024
 C117 C 0.80827 -0.29193 0.73394
 C118 C 0.81073 -0.31060 0.75020
 C119 C 0.79186 -0.30777 0.76623
 H120 H 0.81976 -0.28817 0.71869
 H121 H 0.78786 -0.31907 0.78156
 N122 N 0.75990 -0.22133 0.71153
 N123 N 0.74045 -0.21162 0.72123
 C124 C 0.73397 -0.19220 0.70823
 C125 C 0.75011 -0.18961 0.68951
 C126 C 0.76630 -0.20834 0.69210
 H127 H 0.71866 -0.18073 0.71203
 H128 H 0.78159 -0.21214 0.68063
 H129 H 0.74048 -0.25522 0.73576
 H130 H 0.75997 -0.23575 0.75507
 N131 N 0.28849 0.24002 0.77872
 N132 N 0.27854 0.25929 0.78827
 C133 C 0.29118 0.26573 0.80792
 C134 C 0.31001 0.24964 0.81072
 C135 C 0.30778 0.23355 0.79192
 H136 H 0.28718 0.28104 0.81927
 H137 H 0.31951 0.21849 0.78797
 Cu138 Cu 0.25005 0.27385 0.77382
 Cu139 Cu 0.27648 0.22587 0.74902
 Cu140 Cu 0.22430 0.25000 0.72461
 N141 N 0.22163 0.28840 0.75933
 N142 N 0.21161 0.27882 0.74015
 C143 C 0.19212 0.29188 0.73397
 C144 C 0.18979 0.31059 0.75014
 C145 C 0.20878 0.30789 0.76602
 H146 H 0.18044 0.28803 0.71888
 H147 H 0.21276 0.31922 0.78132
 N148 N 0.24019 0.22091 0.71173
 N149 N 0.25990 0.21148 0.72120
 C150 C 0.26628 0.19192 0.70835
 C151 C 0.24988 0.18905 0.68990
 C152 C 0.23359 0.20767 0.69255
 H153 H 0.28183 0.18070 0.71193
 H154 H 0.21820 0.21137 0.68118
 H155 H 0.25911 0.25593 0.73488
 H156 H 0.24087 0.23569 0.75454
 N157 N 0.28872 -0.24018 0.22152
 N158 N 0.27877 -0.25945 0.21201
 C159 C 0.29166 -0.26619 0.19261
 C160 C 0.31057 -0.25020 0.18984
 C161 C 0.30819 -0.23393 0.20846
 H162 H 0.28767 -0.28154 0.18131
 H163 H 0.31977 -0.21871 0.21222
 Cu164 Cu 0.25018 -0.27387 0.22626
 Cu165 Cu 0.27575 -0.22453 0.25007
 Cu166 Cu 0.22455 -0.25002 0.27547
 N167 N 0.22142 -0.28799 0.24047
 N168 N 0.21158 -0.27857 0.25980
 C169 C 0.19214 -0.29168 0.26606
 C170 C 0.18976 -0.31033 0.24982
 C171 C 0.20862 -0.30753 0.23383
 H172 H 0.18061 -0.28797 0.28129
 H173 H 0.21264 -0.31890 0.21856
 N174 N 0.24040 -0.22112 0.28859
 N175 N 0.25989 -0.21141 0.27893
 C176 C 0.26633 -0.19198 0.29195
 C177 C 0.25013 -0.18941 0.31061
 C178 C 0.23394 -0.20812 0.30799
 H179 H 0.28165 -0.18052 0.28819
 H180 H 0.21862 -0.21193 0.31941
 H181 H 0.25984 -0.25495 0.26458
 H182 H 0.24042 -0.23549 0.24523
 N183 N 0.71143 0.23996 0.22125
 N184 N 0.72138 0.25923 0.21170
 C185 C 0.70875 0.26569 0.19205
 C186 C 0.68992 0.24960 0.18924
 C187 C 0.69215 0.23350 0.20804
 H188 H 0.71276 0.28100 0.18071
 H189 H 0.68041 0.21844 0.21198
 Cu190 Cu 0.74986 0.27378 0.22615
 Cu191 Cu 0.72344 0.22580 0.25095
 Cu192 Cu 0.77561 0.24992 0.27538
 N193 N 0.77825 0.28832 0.24065
 N194 N 0.78827 0.27874 0.25984
 C195 C 0.80775 0.29180 0.26603
 C196 C 0.81006 0.31050 0.24985
 C197 C 0.79109 0.30781 0.23397
 H198 H 0.81942 0.28796 0.28111
 H199 H 0.78712 0.31914 0.21867
 N200 N 0.75973 0.22084 0.28825
 N201 N 0.74001 0.21141 0.27877
 C202 C 0.73364 0.19184 0.29162
 C203 C 0.75004 0.18897 0.31007
 C204 C 0.76633 0.20760 0.30743
 H205 H 0.71809 0.18062 0.28803
 H206 H 0.78171 0.21130 0.31879
 H207 H 0.74083 0.25588 0.26511
 H208 H 0.75907 0.23564 0.24545
 O209 O 0.23006 0.02336 0.47677
 O210 O 0.23012 -0.02356 0.52358
 O211 O 0.23008 0.02336 0.52355
 O212 O 0.23008 -0.02354 0.47678
 O213 O 0.26997 -0.02351 0.47675
 O214 O 0.26997 0.02338 0.52351
 O215 O 0.27000 -0.02353 0.52354
 O216 O 0.26994 0.02339 0.47673
 Cu217 Cu 0.22608 -0.00010 0.50018
 Cu218 Cu 0.27397 -0.00007 0.50013
 C219 C 0.24999 0.03135 0.46879
 C220 C 0.25007 -0.03152 0.53153
 C221 C 0.25003 0.03135 0.53148
 C222 C 0.25002 -0.03149 0.46880
 O223 O 0.76980 0.02326 0.52323
 O224 O 0.76974 -0.02368 0.47640
 O225 O 0.76979 0.02324 0.47644
 O226 O 0.76979 -0.02368 0.52322
 O227 O 0.72991 -0.02365 0.52326
 O228 O 0.72991 0.02326 0.47648
 O229 O 0.72986 -0.02365 0.47644
 O230 O 0.72992 0.02327 0.52327
 Cu231 Cu 0.77378 -0.00022 0.49982
 Cu232 Cu 0.72590 -0.00020 0.49986
 C233 C 0.74987 0.03125 0.53121
 C234 C 0.74979 -0.03163 0.46844
 C235 C 0.74985 0.03122 0.46850
 C236 C 0.74985 -0.03164 0.53120
 O237 O 0.47654 0.23060 0.02333
 O238 O 0.52354 0.23060 -0.02349
 O239 O 0.52353 0.23060 0.02331
 O240 O 0.47653 0.23060 -0.02346
 O241 O 0.47655 0.27040 -0.02345
 O242 O 0.52353 0.27040 0.02329
 O243 O 0.52355 0.27040 -0.02349
 O244 O 0.47655 0.27041 0.02331
 Cu245 Cu 0.50004 0.22660 -0.00008
 Cu246 Cu 0.50005 0.27439 -0.00009
 C247 C 0.46855 0.25051 0.03128
 C248 C 0.53154 0.25050 -0.03145
 C249 C 0.53151 0.25050 0.03126
 C250 C 0.46855 0.25051 -0.03141
 O251 O 0.52391 0.76935 0.02378
 O252 O 0.47687 0.76936 -0.02303
 O253 O 0.47690 0.76934 0.02377
 O254 O 0.52390 0.76938 -0.02304
 O255 O 0.52390 0.72957 -0.02304
 O256 O 0.47692 0.72954 0.02375
 O257 O 0.47689 0.72956 -0.02304
 O258 O 0.52390 0.72955 0.02376
 Cu259 Cu 0.50040 0.77335 0.00037
 Cu260 Cu 0.50041 0.72557 0.00035
 C261 C 0.53189 0.74944 0.03174
 C262 C 0.46889 0.74945 -0.03100
 C263 C 0.46892 0.74943 0.03172
 C264 C 0.53189 0.74947 -0.03101
 O265 O 0.02309 0.47698 0.22953
 O266 O -0.02393 0.52388 0.22946
 O267 O 0.02307 0.52382 0.22952
 O268 O -0.02385 0.47697 0.22952
 O269 O -0.02389 0.47699 0.26921
 O270 O 0.02305 0.52386 0.26922
 O271 O -0.02398 0.52392 0.26915
 O272 O 0.02307 0.47699 0.26922
 Cu273 Cu -0.00041 0.50042 0.22553
 Cu274 Cu -0.00045 0.50045 0.27320
 C275 C 0.03107 0.46900 0.24938
 C276 C -0.03196 0.53187 0.24929
 C277 C 0.03107 0.53177 0.24937
 C278 C -0.03182 0.46898 0.24936
 O279 O 0.02332 0.52379 0.77047
 O280 O -0.02376 0.47681 0.77044
 O281 O 0.02324 0.47688 0.77043
 O282 O -0.02374 0.52378 0.77044
 O283 O -0.02374 0.52382 0.73075
 O284 O 0.02327 0.47689 0.73074
 O285 O -0.02375 0.47683 0.73076
 O286 O 0.02335 0.52382 0.73078
 Cu287 Cu -0.00025 0.50032 0.77441
 Cu288 Cu -0.00023 0.50035 0.72678
 C289 C 0.03138 0.53176 0.75064
 C290 C -0.03174 0.46880 0.75060
 C291 C 0.03125 0.46891 0.75059
 C292 C -0.03173 0.53178 0.75060
 N293 N 0.34593 0.26769 0.13653
 C294 C 0.36342 0.25060 0.13632
 N295 N 0.36345 0.23339 0.15359
 N296 N 0.34648 0.23325 0.17056
 C297 C 0.32892 0.25031 0.17082
 N298 N 0.32896 0.26755 0.15350
 C299 C 0.38165 0.25068 0.11800
 C300 C 0.39698 0.25067 0.10264
 C301 C 0.41526 0.25063 0.08437
 N302 N 0.42399 0.22954 0.07568
 N303 N 0.44099 0.22949 0.05874
 C304 C 0.44983 0.25054 0.04993
 N305 N 0.44104 0.27163 0.05868
 N306 N 0.42404 0.27167 0.07562
 N307 N 0.65460 0.73228 0.13691
 C308 C 0.63714 0.74939 0.13672
 N309 N 0.63713 0.76657 0.15402
 N310 N 0.65405 0.76663 0.17103
 C311 C 0.67158 0.74950 0.17132
 N312 N 0.67153 0.73233 0.15392
 C313 C 0.61885 0.74931 0.11845
 C314 C 0.60346 0.74929 0.10313
 C315 C 0.58513 0.74933 0.08490
 N316 N 0.57640 0.77041 0.07620
 N317 N 0.55941 0.77046 0.05925
 C318 C 0.55059 0.74941 0.05043
 N319 N 0.55937 0.72832 0.05919
 N320 N 0.57636 0.72828 0.07614
 N321 N 0.65413 0.26767 -0.13674
 C322 C 0.63671 0.25052 -0.13651
 N323 N 0.63675 0.23330 -0.15378
 N324 N 0.65370 0.23323 -0.17077
 C325 C 0.67118 0.25039 -0.17105
 N326 N 0.67109 0.26761 -0.15372
 C327 C 0.61844 0.25056 -0.11821
 C328 C 0.60309 0.25057 -0.10286
 C329 C 0.58481 0.25055 -0.08458
 N330 N 0.57606 0.22948 -0.07586
 N331 N 0.55907 0.22946 -0.05891
 C332 C 0.55026 0.25052 -0.05012
 N333 N 0.55906 0.27159 -0.05889
 N334 N 0.57605 0.27161 -0.07584
 N335 N 0.34620 0.73218 -0.13620
 C336 C 0.36358 0.74939 -0.13594
 N337 N 0.36350 0.76664 -0.15318
 N338 N 0.34657 0.76667 -0.17019
 C339 C 0.32916 0.74945 -0.17053
 N340 N 0.32927 0.73221 -0.15321
 C341 C 0.38186 0.74933 -0.11766
 C342 C 0.39725 0.74933 -0.10234
 C343 C 0.41558 0.74936 -0.08410
 N344 N 0.42432 0.77044 -0.07539
 N345 N 0.44132 0.77048 -0.05846
 C346 C 0.45015 0.74943 -0.04966
 N347 N 0.44137 0.72834 -0.05843
 N348 N 0.42436 0.72831 -0.07536
 N349 N 0.13640 0.34655 0.26674
 C350 C 0.13638 0.36385 0.24954
 N351 N 0.15396 0.36374 0.23259
 N352 N 0.17105 0.34684 0.23283
 C353 C 0.17113 0.32950 0.25005
 N354 N 0.15349 0.32966 0.26699
 C355 C 0.11804 0.38210 0.24937
 C356 C 0.10265 0.39745 0.24931
 C357 C 0.08434 0.41573 0.24932
 N358 N 0.07558 0.42450 0.22833
 N359 N 0.05859 0.44150 0.22835
 C360 C 0.04980 0.45029 0.24937
 N361 N 0.05860 0.44147 0.27037
 N362 N 0.07559 0.42447 0.27034
 N363 N 0.13724 0.65405 0.73359
 C364 C 0.13715 0.63677 0.75080
 N365 N 0.15443 0.63717 0.76805
 N366 N 0.17129 0.65432 0.76807
 C367 C 0.17144 0.67168 0.75085
 N368 N 0.15409 0.67119 0.73360
 C369 C 0.11890 0.61835 0.75082
 C370 C 0.10351 0.60296 0.75080
 C371 C 0.08511 0.58469 0.75076
 N372 N 0.07624 0.57598 0.77174
 N373 N 0.05911 0.55911 0.77170
 C374 C 0.05024 0.55040 0.75067
 N375 N 0.05916 0.55917 0.72969
 N376 N 0.07630 0.57603 0.72973
 N377 N -0.13743 0.65434 0.26600
 C378 C -0.13755 0.63685 0.24901
 N379 N -0.15510 0.63693 0.23203
 N380 N -0.17203 0.65399 0.23205
 C381 C -0.17198 0.67157 0.24905
 N382 N -0.15435 0.67140 0.26602
 C383 C -0.11927 0.61851 0.24899
 C384 C -0.10386 0.60316 0.24903
 C385 C -0.08548 0.58493 0.24910
 N386 N -0.07671 0.57626 0.27014
 N387 N -0.05963 0.55935 0.27021
 C388 C -0.05074 0.55054 0.24923
 N389 N -0.05955 0.55927 0.22819
 N390 N -0.07663 0.57618 0.22813
 N391 N -0.13700 0.34596 0.73321
 C392 C -0.13693 0.36323 0.75044
 N393 N -0.15437 0.36294 0.76754
 N394 N -0.17134 0.34591 0.76742
 C395 C -0.17147 0.32857 0.75019
 N396 N -0.15396 0.32893 0.73309
 C397 C -0.11863 0.38158 0.75055
 C398 C -0.10324 0.39698 0.75060
 C399 C -0.08493 0.41533 0.75060
 N400 N -0.07618 0.42411 0.77161
 N401 N -0.05922 0.44115 0.77161
 C402 C -0.05044 0.45000 0.75060
 N403 N -0.05923 0.44116 0.72959
 N404 N -0.07618 0.42412 0.72960
 N405 N 0.23257 0.15364 0.36357
 C406 C 0.24990 0.13639 0.36383
 N407 N 0.26731 0.13668 0.34671
 N408 N 0.26740 0.15372 0.32985
 C409 C 0.25009 0.17104 0.32954
 N410 N 0.23266 0.17068 0.34670
 C411 C 0.24986 0.11809 0.38204
 C412 C 0.24986 0.10273 0.39736
 C413 C 0.24989 0.08447 0.41562
 N414 N 0.27101 0.07577 0.42433
 N415 N 0.27105 0.05883 0.44130
 C416 C 0.24996 0.05003 0.45012
 N417 N 0.22883 0.05879 0.44135
 N418 N 0.22880 0.07573 0.42438
 N419 N 0.73281 0.13650 0.65356
 C420 C 0.75002 0.13634 0.63623
 N421 N 0.76727 0.15366 0.63635
 N422 N 0.76733 0.17063 0.65329
 C423 C 0.75013 0.17085 0.67067
 N424 N 0.73287 0.15347 0.67050
 C425 C 0.74996 0.11805 0.61797
 C426 C 0.74993 0.10270 0.60263
 C427 C 0.74991 0.08443 0.58436
 N428 N 0.77101 0.07569 0.57561
 N429 N 0.77100 0.05873 0.55866
 C430 C 0.74989 0.04995 0.54988
 N431 N 0.72878 0.05875 0.55869
 N432 N 0.72880 0.07570 0.57564
 N433 N 0.26709 -0.13642 0.65413
 C434 C 0.25006 -0.13646 0.63664
 N435 N 0.23292 -0.15390 0.63669
 N436 N 0.23280 -0.17078 0.65372
 C437 C 0.24982 -0.17078 0.67128
 N438 N 0.26698 -0.15330 0.67116
 C439 C 0.25013 -0.11823 0.61835
 C440 C 0.25016 -0.10290 0.60299
 C441 C 0.25014 -0.08464 0.58472
 N442 N 0.27124 -0.07590 0.57596
 N443 N 0.27122 -0.05896 0.55899
 C444 C 0.25010 -0.05019 0.55021
 N445 N 0.22900 -0.05899 0.55903
 N446 N 0.22903 -0.07593 0.57599
 N447 N 0.73219 -0.13679 0.34612
 C448 C 0.74959 -0.13651 0.36325
 N449 N 0.76702 -0.15366 0.36287
 N450 N 0.76706 -0.17056 0.34587
 C451 C 0.74967 -0.17088 0.32868
 N452 N 0.73223 -0.15369 0.32912
 C453 C 0.74959 -0.11826 0.38154
 C454 C 0.74961 -0.10294 0.39689
 C455 C 0.74966 -0.08469 0.41518
 N456 N 0.77079 -0.07600 0.42390
 N457 N 0.77084 -0.05908 0.44089
 C458 C 0.74975 -0.05029 0.44973
 N459 N 0.72862 -0.05903 0.44095
 N460 N 0.72857 -0.07594 0.42396
 N461 N 0.63692 0.76667 -0.15340
 C462 C 0.63695 0.74944 -0.13613
 N463 N 0.65439 0.73230 -0.13641
 N464 N 0.67130 0.73240 -0.15344
 C465 C 0.67132 0.74963 -0.17076
 N466 N 0.65383 0.76676 -0.17043
 C467 C 0.61873 0.74936 -0.11780
 C468 C 0.60340 0.74935 -0.10243
 C469 C 0.58513 0.74938 -0.08415
 N470 N 0.57636 0.72834 -0.07540
 N471 N 0.55937 0.72837 -0.05845
 C472 C 0.55059 0.74945 -0.04968
 N473 N 0.55941 0.77051 -0.05849
 N474 N 0.57640 0.77047 -0.07545
 N475 N 0.34581 0.26739 -0.13644
 C476 C 0.36341 0.25042 -0.13632
 N477 N 0.36346 0.23319 -0.15359
 N478 N 0.34641 0.23294 -0.17046
 C479 C 0.32875 0.24990 -0.17063
 N480 N 0.32876 0.26714 -0.15332
 C481 C 0.38171 0.25060 -0.11810
 C482 C 0.39706 0.25066 -0.10277
 C483 C 0.41533 0.25063 -0.08451
 N484 N 0.42409 0.27168 -0.07576
 N485 N 0.44107 0.27164 -0.05881
 C486 C 0.44984 0.25054 -0.05005
 N487 N 0.44101 0.22949 -0.05885
 N488 N 0.42404 0.22954 -0.07581
 N489 N 0.36366 0.76664 0.15381
 C490 C 0.36366 0.74940 0.13657
 N491 N 0.34621 0.73227 0.13682
 N492 N 0.32928 0.73238 0.15382
 C493 C 0.32923 0.74962 0.17112
 N494 N 0.34673 0.76676 0.17081
 C495 C 0.38192 0.74929 0.11830
 C496 C 0.39729 0.74927 0.10298
 C497 C 0.41561 0.74930 0.08476
 N498 N 0.42439 0.72825 0.07603
 N499 N 0.44141 0.72830 0.05911
 C500 C 0.45021 0.74939 0.05037
 N501 N 0.44137 0.77044 0.05917
 N502 N 0.42435 0.77039 0.07609
 N503 N 0.63649 0.23316 0.15353
 C504 C 0.63654 0.25040 0.13628
 N505 N 0.65414 0.26737 0.13640
 N506 N 0.67119 0.26711 0.15328
 C507 C 0.67119 0.24986 0.17059
 N508 N 0.65353 0.23291 0.17042
 C509 C 0.61825 0.25058 0.11805
 C510 C 0.60289 0.25064 0.10272
 C511 C 0.58463 0.25062 0.08446
 N512 N 0.57589 0.27166 0.07569
 N513 N 0.55894 0.27163 0.05871
 C514 C 0.55018 0.25054 0.04994
 N515 N 0.55898 0.22948 0.05876
 N516 N 0.57593 0.22953 0.07575
 N517 N -0.13713 0.65415 0.73338
 C518 C -0.13709 0.63691 0.75062
 N519 N -0.15450 0.63721 0.76774
 N520 N -0.17145 0.65425 0.76761
 C521 C -0.17157 0.67157 0.75036
 N522 N -0.15408 0.67119 0.73325
 C523 C -0.11882 0.61857 0.75074
 C524 C -0.10344 0.60321 0.75076
 C525 C -0.08511 0.58494 0.75073
 N526 N -0.07632 0.57618 0.77171
 N527 N -0.05929 0.55923 0.77167
 C528 C -0.05047 0.55047 0.75064
 N529 N -0.05931 0.55929 0.72965
 N530 N -0.07634 0.57625 0.72970
 N531 N -0.13669 0.34638 0.26650
 C532 C -0.13667 0.36367 0.24930
 N533 N -0.15413 0.36348 0.23224
 N534 N -0.17112 0.34650 0.23238
 C535 C -0.17120 0.32917 0.24960
 N536 N -0.15368 0.32941 0.26664
 C537 C -0.11844 0.38197 0.24923
 C538 C -0.10311 0.39734 0.24923
 C539 C -0.08487 0.41563 0.24927
 N540 N -0.07618 0.42438 0.27030
 N541 N -0.05924 0.44141 0.27034
 C542 C -0.05044 0.45024 0.24934
 N543 N -0.05917 0.44142 0.22831
 N544 N -0.07611 0.42439 0.22828
 N545 N 0.13652 0.34650 0.73349
 C546 C 0.13650 0.36380 0.75067
 N547 N 0.15396 0.36360 0.76774
 N548 N 0.17095 0.34661 0.76761
 C549 C 0.17104 0.32927 0.75040
 N550 N 0.15351 0.32952 0.73335
 C551 C 0.11825 0.38212 0.75074
 C552 C 0.10289 0.39749 0.75073
 C553 C 0.08459 0.41576 0.75069
 N554 N 0.07586 0.42448 0.72966
 N555 N 0.05883 0.44143 0.72962
 C556 C 0.04998 0.45023 0.75062
 N557 N 0.05877 0.44146 0.77164
 N558 N 0.07579 0.42450 0.77168
 N559 N 0.13665 0.65364 0.26662
 C560 C 0.13662 0.63638 0.24940
 N561 N 0.15405 0.63661 0.23230
 N562 N 0.17102 0.65361 0.23243
 C563 C 0.17111 0.67092 0.24966
 N564 N 0.15362 0.67063 0.26675
 C565 C 0.11837 0.61810 0.24929
 C566 C 0.10299 0.60278 0.24926
 C567 C 0.08464 0.58459 0.24928
 N568 N 0.07584 0.57596 0.27031
 N569 N 0.05873 0.55910 0.27034
 C570 C 0.04987 0.55034 0.24934
 N571 N 0.05873 0.55903 0.22831
 N572 N 0.07585 0.57589 0.22829
 N573 N 0.73276 -0.13660 0.65367
 C574 C 0.74995 -0.13647 0.63634
 N575 N 0.76720 -0.15380 0.63647
 N576 N 0.76725 -0.17075 0.65343
 C577 C 0.75005 -0.17093 0.67082
 N578 N 0.73281 -0.15354 0.67063
 C579 C 0.74990 -0.11823 0.61807
 C580 C 0.74988 -0.10291 0.60272
 C581 C 0.74986 -0.08469 0.58443
 N582 N 0.77097 -0.07599 0.57566
 N583 N 0.77097 -0.05907 0.55867
 C584 C 0.74985 -0.05029 0.54989
 N585 N 0.72874 -0.05905 0.55871
 N586 N 0.72875 -0.07596 0.57570
 N587 N 0.23283 -0.15368 0.36360
 C588 C 0.25006 -0.13634 0.36380
 N589 N 0.26733 -0.13644 0.34653
 N590 N 0.26735 -0.15337 0.32957
 C591 C 0.25011 -0.17076 0.32931
 N592 N 0.23285 -0.17061 0.34663
 C593 C 0.25003 -0.11811 0.38205
 C594 C 0.25002 -0.10279 0.39739
 C595 C 0.25002 -0.08456 0.41564
 N596 N 0.27113 -0.07583 0.42436
 N597 N 0.27113 -0.05890 0.44133
 C598 C 0.25002 -0.05014 0.45014
 N599 N 0.22891 -0.05892 0.44136
 N600 N 0.22891 -0.07586 0.42439
 N601 N 0.73248 0.13631 0.34629
 C602 C 0.74981 0.13612 0.36349
 N603 N 0.76721 0.15329 0.36313
 N604 N 0.76729 0.17014 0.34608
 C605 C 0.74997 0.17037 0.32882
 N606 N 0.73255 0.15316 0.32924
 C607 C 0.74979 0.11793 0.38179
 C608 C 0.74980 0.10263 0.39715
 C609 C 0.74981 0.08439 0.41541
 N610 N 0.77093 0.07565 0.42411
 N611 N 0.77094 0.05869 0.44105
 C612 C 0.74984 0.04990 0.44985
 N613 N 0.72872 0.05870 0.44109
 N614 N 0.72871 0.07566 0.42416
 N615 N 0.23270 0.15337 0.63685
 C616 C 0.25010 0.13621 0.63648
 N617 N 0.26743 0.13639 0.65367
 N618 N 0.26737 0.15324 0.67073
 C619 C 0.24995 0.17045 0.67115
 N620 N 0.23263 0.17022 0.65390
 C621 C 0.25011 0.11803 0.61818
 C622 C 0.25010 0.10273 0.60281
 C623 C 0.25008 0.08451 0.58455
 N624 N 0.27118 0.07578 0.57581
 N625 N 0.27116 0.05882 0.55887
 C626 C 0.25004 0.05003 0.55012
 N627 N 0.22894 0.05882 0.55891
 N628 N 0.22896 0.07578 0.57585
   
