data_POSCAR
  _audit_creation_date              2014-09-24
  _audit_creation_method            'ToBaCCo'
  _symmetry_space_group_name_H-M    'P1'
  _symmetry_Int_Tables_number       1
  _symmetry_cell_setting            triclinic
  loop_
  _symmetry_equiv_pos_as_xyz
 x,y,z
_cell_length_a 21.4928
_cell_length_b 19.5231
_cell_length_c 19.5259
_cell_angle_alpha 111.071400
_cell_angle_beta 82.284300
_cell_angle_gamma 92.277200
loop_
  _atom_site_label
  _atom_site_type_symbol
  _atom_site_fract_x
  _atom_site_fract_y
  _atom_site_fract_z
N1 N 0.21939 0.19765 0.22333
 N2 N 0.68329 -0.37157 0.19192
 N3 N 0.82735 0.28795 0.82009
 N4 N 0.27343 -0.13676 0.77390
 N5 N 0.78170 -0.23191 0.76450
 N6 N 0.34899 0.37143 0.76558
 N7 N 0.18923 -0.30569 0.21136
 N8 N 0.69374 0.17667 0.27543
 O9 O 0.22599 0.07712 0.43702
 O10 O 0.24542 0.00818 0.58618
 O11 O 0.26616 0.13155 0.56681
 O12 O 0.19278 -0.04101 0.46620
 O13 O 0.28649 -0.08781 0.41250
 O14 O 0.36021 0.08849 0.51019
 O15 O 0.34048 -0.03219 0.53036
 O16 O 0.31810 0.02825 0.37919
 Cu17 Cu 0.22319 0.04886 0.51945
 Cu18 Cu 0.33552 -0.00493 0.45133
 C19 C 0.26862 0.06258 0.38177
 C20 C 0.29717 -0.02265 0.58368
 C21 C 0.32522 0.13874 0.55836
 C22 C 0.22715 -0.09442 0.42333
 O23 O 0.73359 0.05121 0.60985
 O24 O 0.67272 -0.11372 0.47263
 O25 O 0.72382 -0.08650 0.59296
 O26 O 0.67625 0.02622 0.49327
 O27 O 0.76858 0.00830 0.42427
 O28 O 0.81700 -0.10528 0.52553
 O29 O 0.76543 -0.13282 0.40435
 O30 O 0.82599 0.03102 0.54070
 Cu31 Cu 0.69222 -0.02871 0.54862
 Cu32 Cu 0.80333 -0.05167 0.46634
 C33 C 0.79090 0.06794 0.59904
 C34 C 0.70895 -0.15167 0.41557
 C35 C 0.77865 -0.11415 0.57725
 C36 C 0.71380 0.03686 0.44221
 O37 O 0.43276 0.23122 0.04952
 O38 O 0.58770 0.24944 -0.05221
 O39 O 0.54610 0.19760 0.05296
 O40 O 0.47032 0.27688 -0.05936
 O41 O 0.47633 0.38799 0.02437
 O42 O 0.56006 0.30879 0.13305
 O43 O 0.59363 0.36245 0.02774
 O44 O 0.44449 0.34182 0.13198
 Cu45 Cu 0.50872 0.22765 -0.01105
 Cu46 Cu 0.52020 0.36126 0.08734
 C47 C 0.41294 0.28375 0.10871
 C48 C 0.61623 0.31030 -0.02976
 C49 C 0.56484 0.23935 0.11272
 C50 C 0.45878 0.34528 -0.03604
 O51 O 0.50881 0.63526 -0.01644
 O52 O 0.41665 0.73058 -0.10218
 O53 O 0.53193 0.67963 -0.13002
 O54 O 0.39249 0.67703 0.00052
 O55 O 0.41730 0.78799 0.07329
 O56 O 0.56284 0.78410 -0.05136
 O57 O 0.44965 0.83744 -0.02968
 O58 O 0.53304 0.74318 0.06248
 Cu59 Cu 0.46066 0.66964 -0.07026
 Cu60 Cu 0.49416 0.79855 0.02173
 C61 C 0.53566 0.67372 0.03894
 C62 C 0.41651 0.80036 -0.07910
 C63 C 0.57106 0.73147 -0.11331
 C64 C 0.37962 0.73430 0.05730
 O65 O 0.02336 0.32082 0.15218
 O66 O -0.09978 0.42444 0.11565
 O67 O 0.02075 0.43805 0.11930
 O68 O -0.09454 0.30197 0.14145
 O69 O -0.11853 0.36804 0.26018
 O70 O 0.00445 0.50040 0.23958
 O71 O -0.11808 0.49066 0.23489
 O72 O -0.00146 0.38054 0.27229
 Cu73 Cu -0.03578 0.36524 0.12007
 Cu74 Cu -0.06028 0.44231 0.26375
 C75 C 0.03005 0.33152 0.21888
 C76 C -0.12969 0.47538 0.16908
 C77 C 0.03334 0.49154 0.17558
 C78 C -0.12536 0.31081 0.20420
 O79 O 0.09319 0.61846 0.71784
 O80 O 0.00297 0.47129 0.75987
 O81 O -0.02308 0.59844 0.75218
 O82 O 0.12325 0.49688 0.72368
 O83 O 0.13368 0.54655 0.84256
 O84 O -0.01239 0.65351 0.87045
 O85 O 0.01320 0.52561 0.87828
 O86 O 0.10646 0.67113 0.83580
 Cu87 Cu 0.04732 0.53936 0.72678
 Cu88 Cu 0.06071 0.60394 0.86907
 C89 C 0.11599 0.66912 0.76945
 C90 C -0.00819 0.47398 0.82630
 C91 C -0.04144 0.64541 0.81545
 C92 C 0.15485 0.50674 0.77679
 N93 N 0.32296 0.33703 0.20499
 N94 N 0.27163 0.31420 0.23518
 C95 C 0.26852 0.24087 0.20229
 C96 C 0.31962 0.21538 0.14827
 C97 C 0.35292 0.27863 0.15198
 H98 H 0.33131 0.15966 0.11199
 H99 H 0.33718 0.39172 0.22081
 H100 H 0.24006 0.34817 0.27835
 N101 N 0.57954 0.56517 0.05602
 N102 N 0.61881 0.55346 0.09740
 C103 C 0.63593 0.61880 0.14405
 C104 C 0.60651 0.67464 0.13274
 C105 C 0.57153 0.63823 0.07593
 H106 H 0.61248 0.73320 0.15913
 H107 H 0.55997 0.52388 0.01395
 H108 H 0.63425 0.50190 0.09309
 N109 N 0.69705 0.39079 -0.06292
 N110 N 0.75241 0.38509 -0.10285
 C111 C 0.76734 0.31344 -0.13701
 C112 C 0.71924 0.27118 -0.11797
 C113 C 0.67559 0.32303 -0.07039
 H114 H 0.71760 0.21217 -0.13315
 H115 H 0.67452 0.44058 -0.03117
 H116 H 0.77949 0.42977 -0.10590
 N117 N 0.37332 0.91290 -0.08717
 N118 N 0.33295 0.92974 -0.12408
 C119 C 0.30857 0.86710 -0.16752
 C120 C 0.33490 0.80759 -0.15907
 C121 C 0.37598 0.83927 -0.10778
 H122 H 0.32795 0.74983 -0.18895
 H123 H 0.39954 0.95124 -0.04997
 H124 H 0.32408 0.98289 -0.12147
 N125 N 0.06142 0.25734 0.28874
 N126 N 0.11085 0.21905 0.28843
 C127 C 0.15573 0.22372 0.23497
 C128 C 0.13334 0.26478 0.19836
 C129 C 0.07372 0.28547 0.23476
 H130 H 0.15786 0.28007 0.15390
 H131 H 0.01997 0.26382 0.32525
 H132 H 0.11325 0.19204 0.32533
 N133 N 0.16833 0.72656 0.68249
 N134 N 0.21045 0.77785 0.68343
 C135 C 0.22497 0.80948 0.75298
 C136 C 0.19075 0.77706 0.79837
 C137 C 0.15555 0.72458 0.75120
 H138 H 0.19326 0.78768 0.85628
 H139 H 0.15048 0.69188 0.63492
 H140 H 0.23058 0.78803 0.63635
 N141 N -0.18954 0.51076 0.08613
 N142 N -0.23872 0.55193 0.09226
 C143 C -0.26007 0.58480 0.16467
 C144 C -0.22264 0.56431 0.20671
 C145 C -0.17867 0.51674 0.15439
 H146 H -0.22832 0.57899 0.26619
 H147 H -0.16446 0.47867 0.03589
 H148 H -0.25730 0.55661 0.04737
 N149 N -0.06181 0.41478 0.91188
 N150 N -0.10529 0.36451 0.90984
 C151 C -0.11950 0.33450 0.84018
 C152 C -0.08403 0.36700 0.79575
 C153 C -0.04813 0.41793 0.84362
 H154 H -0.08765 0.35904 0.73865
 H155 H -0.04392 0.44830 0.95992
 H156 H -0.12649 0.35306 0.95583
 N157 N 0.28637 0.04746 0.24876
 N158 N 0.27156 0.08210 0.20613
 C159 C 0.23607 0.14116 0.24856
 C160 C 0.22832 0.14499 0.32149
 C161 C 0.26062 0.08408 0.31888
 H162 H 0.20623 0.18806 0.37010
 H163 H 0.31394 -0.00019 0.23002
 H164 H 0.28612 0.06571 0.14936
 N165 N 0.88071 0.13883 0.65629
 N166 N 0.89043 0.19570 0.71563
 C167 C 0.83437 0.22349 0.75357
 C168 C 0.78665 0.18219 0.71683
 C169 C 0.81841 0.12899 0.65539
 H170 H 0.73641 0.18976 0.73153
 H171 H 0.91639 0.10669 0.61779
 H172 H 0.93486 0.21435 0.72963
 N173 N 0.36567 -0.06207 0.65481
 N174 N 0.35934 -0.09186 0.70611
 C175 C 0.29760 -0.09779 0.72653
 C176 C 0.26279 -0.06939 0.68810
 C177 C 0.30809 -0.04815 0.64261
 H178 H 0.21231 -0.06895 0.68935
 H179 H 0.40869 -0.05360 0.62720
 H180 H 0.39661 -0.11097 0.72379
 N181 N 0.62420 -0.23827 0.36455
 N182 N 0.61760 -0.29702 0.30551
 C183 C 0.67413 -0.31560 0.26449
 C184 C 0.71881 -0.26644 0.29826
 C185 C 0.68486 -0.21792 0.36161
 H186 H 0.76793 -0.26408 0.27790
 H187 H 0.58733 -0.21159 0.40495
 H188 H 0.57490 -0.32282 0.29299
 N189 N 0.63002 0.69064 -0.23998
 N190 N 0.68543 0.70167 -0.27254
 C191 C 0.71780 0.74794 -0.22060
 C192 C 0.68181 0.76784 -0.15192
 C193 C 0.62621 0.73024 -0.16698
 H194 H 0.69419 0.80360 -0.09890
 H195 H 0.59552 0.65659 -0.26748
 H196 H 0.70111 0.67669 -0.32892
 N197 N 0.40122 0.44364 -0.05691
 N198 N 0.37106 0.45003 -0.10916
 C199 C 0.37484 0.38533 -0.16630
 C200 C 0.40799 0.33533 -0.14937
 C201 C 0.42411 0.37463 -0.07969
 H202 H 0.41868 0.27839 -0.18254
 H203 H 0.40539 0.48572 -0.00639
 H204 H 0.34843 0.49787 -0.10525
 N205 N 0.28858 0.80604 0.13839
 N206 N 0.23579 0.79469 0.17548
 C207 C 0.23153 0.72251 0.16445
 C208 C 0.28364 0.68581 0.11753
 C209 C 0.31878 0.74137 0.10300
 H210 H 0.29647 0.62858 0.10130
 H211 H 0.30396 0.85748 0.13839
 H212 H 0.20487 0.83627 0.21060
 N213 N 0.57219 0.13976 0.16236
 N214 N 0.60449 0.12437 0.20806
 C215 C 0.64379 0.18022 0.23476
 C216 C 0.63622 0.23384 0.20522
 C217 C 0.59017 0.20576 0.15955
 H218 H 0.66248 0.28394 0.21292
 H219 H 0.53897 0.10506 0.13290
 H220 H 0.60166 0.07505 0.21780
 N221 N -0.12094 0.74403 0.88724
 N222 N -0.16725 0.77757 0.87311
 C223 C -0.17182 0.74777 0.80020
 C224 C -0.12777 0.69226 0.76643
 C225 C -0.09611 0.69193 0.82362
 H226 H -0.11969 0.65755 0.70859
 H227 H -0.10641 0.75719 0.93938
 H228 H -0.19437 0.82053 0.91251
 N229 N -0.16943 0.18534 0.15911
 N230 N -0.21575 0.14804 0.18030
 C231 C -0.24417 0.19061 0.24702
 C232 C -0.21542 0.25846 0.26924
 C233 C -0.16822 0.25271 0.21156
 H234 H -0.23030 0.30684 0.31683
 H235 H -0.14080 0.16573 0.10830
 H236 H -0.23010 0.09620 0.14757
 N237 N 0.25348 0.46398 0.69350
 N238 N 0.30662 0.43179 0.69197
 C239 C 0.30665 0.42192 0.75674
 C240 C 0.25095 0.44966 0.80226
 C241 C 0.21843 0.47523 0.75919
 H242 H 0.23422 0.44566 0.85548
 H243 H 0.24090 0.47631 0.64935
 H244 H 0.34071 0.41335 0.64574
 N245 N 0.10868 0.54219 0.09810
 N246 N 0.15002 0.59560 0.10728
 C247 C 0.15064 0.63156 0.18042
 C248 C 0.10770 0.59974 0.21969
 C249 C 0.08200 0.54330 0.16506
 H250 H 0.09667 0.61516 0.27903
 H251 H 0.09865 0.50608 0.04659
 H252 H 0.17648 0.60719 0.06391
 N253 N 0.85777 -0.17336 0.62157
 N254 N 0.85884 -0.20355 0.67220
 C255 C 0.79948 -0.20609 0.70408
 C256 C 0.75911 -0.17528 0.67318
 C257 C 0.79801 -0.15529 0.62105
 H258 H 0.70897 -0.16630 0.68823
 H259 H 0.89763 -0.16325 0.58974
 H260 H 0.89979 -0.22045 0.68506
 N261 N 0.13514 -0.17324 0.38310
 N262 N 0.12488 -0.23250 0.32599
 C263 C 0.18068 -0.26196 0.28895
 C264 C 0.22833 -0.22061 0.32528
 C265 C 0.19763 -0.16371 0.38296
 H266 H 0.27792 -0.22400 0.30477
 H267 H 0.10005 -0.13627 0.41679
 H268 H 0.08093 -0.24691 0.30807
 N269 N 0.63264 0.10760 0.41547
 N270 N 0.62721 0.14440 0.37154
 C271 C 0.68324 0.14383 0.33120
 C272 C 0.72664 0.10485 0.35011
 C273 C 0.69213 0.08243 0.40378
 H274 H 0.77540 0.09315 0.32716
 H275 H 0.59576 0.09924 0.45225
 H276 H 0.58572 0.16919 0.36934
 N277 N 0.41393 0.21416 0.61731
 N278 N 0.41991 0.27476 0.67503
 C279 C 0.36228 0.30390 0.70389
 C280 C 0.31799 0.26131 0.66291
 C281 C 0.35254 0.20464 0.60873
 H282 H 0.26756 0.26926 0.67280
 H283 H 0.45106 0.17915 0.58585
 H284 H 0.46251 0.29548 0.69380
   
