data_POSCAR
  _audit_creation_date              2014-09-24
  _audit_creation_method            'ToBaCCo'
  _symmetry_space_group_name_H-M    'P1'
  _symmetry_Int_Tables_number       1
  _symmetry_cell_setting            triclinic
  loop_
  _symmetry_equiv_pos_as_xyz
 x,y,z
_cell_length_a 35.9276
_cell_length_b 35.8889
_cell_length_c 35.8829
_cell_angle_alpha 89.941900
_cell_angle_beta 89.957700
_cell_angle_gamma 89.945400
loop_
  _atom_site_label
  _atom_site_type_symbol
  _atom_site_fract_x
  _atom_site_fract_y
  _atom_site_fract_z
N1 N 0.18363 0.18402 0.18514
 N2 N -0.18130 0.81679 0.18203
 N3 N -0.18354 0.18444 -0.18556
 N4 N 0.18468 0.81841 -0.18219
 N5 N 0.18186 1.18212 0.81754
 N6 N 0.81225 0.81353 0.81453
 N7 N 0.18468 0.81694 1.18175
 N8 N 0.81780 1.18352 1.18466
 N9 N 0.46133 0.93761 0.96035
 N10 N 0.43281 0.91500 0.95531
 N11 N 0.53964 0.96385 0.93441
 N12 N 0.56769 0.95971 0.91102
 N13 N 0.53983 0.93730 0.95962
 N14 N 0.56817 0.91448 0.95414
 N15 N 0.46150 0.96399 0.93498
 N16 N 0.43326 0.95997 0.91189
 C17 C 0.41557 0.92931 0.92491
 C18 C 0.58528 0.92880 0.92366
 N19 N 0.53962 1.06950 0.96270
 N20 N 0.56745 1.09301 0.95805
 N21 N 0.46135 1.04421 0.93692
 N22 N 0.43235 1.04889 0.91481
 N23 N 0.46132 1.06925 0.96357
 N24 N 0.43224 1.09153 0.96041
 N25 N 0.53972 1.04412 0.93639
 N26 N 0.56771 1.04959 0.91318
 Mn27 Mn 0.50058 1.00406 0.93523
 C28 C 0.58476 1.08023 0.92706
 C29 C 0.41447 1.07859 0.92976
 N30 N 0.54028 0.93509 1.03981
 N31 N 0.56804 0.91140 1.04407
 N32 N 0.46221 0.96098 1.06686
 N33 N 0.43308 0.95713 1.08895
 N34 N 0.46212 0.93535 1.04076
 N35 N 0.43323 0.91297 1.04478
 N36 N 0.54076 0.96043 1.06616
 N37 N 0.56898 0.95473 1.08901
 Mn38 Mn 0.50087 0.93586 1.00010
 C39 C 0.58576 0.92402 1.07486
 C40 C 0.41541 0.92693 1.07498
 N41 N 0.46217 1.06731 1.04372
 N42 N 0.43332 1.08954 1.04883
 N43 N 0.54105 1.04062 1.06793
 N44 N 0.57049 1.04360 1.08966
 N45 N 0.54064 1.06737 1.04295
 N46 N 0.56980 1.08937 1.04711
 N47 N 0.46276 1.04092 1.06904
 N48 N 0.43443 1.04453 1.09216
 Mn49 Mn 0.50092 1.06884 1.00325
 Mn50 Mn 0.50173 1.00073 1.06795
 Cl51 Cl 0.50104 1.00236 1.00163
 C52 C 0.41632 1.07500 1.07925
 C53 C 0.58812 1.07423 1.07647
 N54 N 0.06659 0.46275 -0.04237
 N55 N 0.08869 0.43366 -0.04705
 N56 N 0.03902 0.54170 -0.06612
 N57 N 0.04209 0.57143 -0.08754
 N58 N 0.06546 0.54117 -0.04090
 N59 N 0.08732 0.57048 -0.04455
 N60 N 0.04047 0.46325 -0.06794
 N61 N 0.04392 0.43448 -0.09051
 C62 C 0.07422 0.41635 -0.07732
 C63 C 0.07244 0.58906 -0.07383
 N64 N -0.06702 0.53846 -0.03968
 N65 N -0.09070 0.56635 -0.04334
 N66 N -0.03931 0.46175 -0.06724
 N67 N -0.04234 0.43319 -0.09010
 N68 N -0.06471 0.46003 -0.04100
 N69 N -0.08576 0.43020 -0.04532
 N70 N -0.04114 0.54016 -0.06545
 N71 N -0.04648 0.56929 -0.08732
 Mn72 Mn -0.00023 0.50182 -0.06714
 C73 C -0.07757 0.58537 -0.07319
 C74 C -0.07148 0.41378 -0.07618
 N75 N 0.06611 0.53992 0.03918
 N76 N 0.08748 0.56959 0.04288
 N77 N 0.04172 0.46086 0.06424
 N78 N 0.04681 0.43214 0.08666
 N79 N 0.06737 0.46158 0.03817
 N80 N 0.09078 0.43352 0.04232
 N81 N 0.04024 0.53940 0.06504
 N82 N 0.04329 0.56873 0.08698
 Mn83 Mn 0.06688 0.50128 -0.00148
 C84 C 0.07299 0.58725 0.07292
 C85 C 0.07758 0.41538 0.07269
 N86 N -0.06412 0.45872 0.03936
 N87 N -0.08656 0.43001 0.04436
 N88 N -0.03999 0.53777 0.06585
 N89 N -0.04352 0.56745 0.08730
 N90 N -0.06611 0.53723 0.04029
 N91 N -0.08796 0.56661 0.04352
 N92 N -0.03826 0.45939 0.06517
 N93 N -0.04242 0.43124 0.08846
 Mn94 Mn -0.06597 0.49851 -0.00024
 Mn95 Mn 0.00094 0.49939 0.06555
 Cl96 Cl 0.00041 0.50023 -0.00082
 C97 C -0.07263 0.41309 0.07513
 C98 C -0.07372 0.58509 0.07312
 N99 N 0.93435 0.03753 0.54018
 N100 N 0.91246 0.04105 0.56949
 N101 N 0.95981 0.06405 0.46142
 N102 N 0.95571 0.08650 0.43253
 N103 N 0.93363 0.03856 0.46173
 N104 N 0.91090 0.04309 0.43322
 N105 N 0.95987 0.06369 0.53987
 N106 N 0.95565 0.08614 0.56871
 C107 C 0.92596 0.07159 0.58688
 C108 C 0.92497 0.07314 0.41526
 N109 N 1.06526 0.03693 0.46074
 N110 N 1.08705 0.04044 0.43135
 N111 N 1.04028 0.06275 0.53963
 N112 N 1.04502 0.08489 0.56862
 N113 N 1.06565 0.03638 0.53930
 N114 N 1.08817 0.03975 0.56813
 N115 N 1.03993 0.06332 0.46117
 N116 N 1.04393 0.08561 0.43215
 Mn117 Mn 0.99998 0.06395 0.50053
 C118 C 1.07354 0.07104 0.41385
 C119 C 1.07508 0.07021 0.58613
 N120 N 0.93311 -0.04154 0.46084
 N121 N 0.91106 -0.04455 0.43160
 N122 N 0.95878 -0.06877 0.53911
 N123 N 0.95442 -0.09147 0.56776
 N124 N 0.93344 -0.04241 0.53956
 N125 N 0.91132 -0.04628 0.56869
 N126 N 0.95821 -0.06815 0.46084
 N127 N 0.95358 -0.09036 0.43193
 Mn128 Mn 0.93318 -0.00197 0.50058
 C129 C 0.92404 -0.07528 0.41399
 C130 C 0.92465 -0.07709 0.58596
 N131 N 1.06483 -0.04378 0.53871
 N132 N 1.08738 -0.04846 0.56736
 N133 N 1.03852 -0.06893 0.46026
 N134 N 1.04342 -0.09229 0.43230
 N135 N 1.06452 -0.04324 0.46022
 N136 N 1.08772 -0.04836 0.43213
 N137 N 1.03888 -0.06951 0.53851
 N138 N 1.04315 -0.09248 0.56690
 Mn139 Mn 1.06553 -0.00341 0.49974
 Mn140 Mn 0.99859 -0.06929 0.49966
 Cl141 Cl 0.99933 -0.00267 0.50012
 C142 C 1.07353 -0.07903 0.58464
 C143 C 1.07419 -0.07907 0.41493
 C144 C 1.13252 0.13188 0.27795
 C145 C 1.14543 0.11002 0.24819
 C146 C 1.16131 0.12726 0.21721
 C147 C 1.16443 0.16619 0.21573
 C148 C 1.15006 0.18712 0.24548
 N149 N 1.13472 0.16969 0.27544
 C150 C 1.11712 0.11491 0.31219
 N151 N 1.09145 0.13414 0.33244
 C152 C 1.07687 0.12056 0.36471
 C153 C 1.08864 0.08596 0.37863
 C154 C 1.11530 0.06583 0.35842
 C155 C 1.12954 0.08012 0.32520
 H156 H 1.17155 0.11025 0.19450
 H157 H 1.15200 0.21720 0.24534
 H158 H 1.05645 0.13700 0.37960
 H159 H 1.12520 0.03907 0.36830
 H160 H 1.14319 0.07995 0.24866
 H161 H 1.15069 0.06447 0.31049
 C162 C 0.86444 -0.13449 0.27854
 C163 C 0.87433 -0.12039 0.24343
 C164 C 0.85974 -0.13692 0.21144
 C165 C 0.83469 -0.16657 0.21467
 C166 C 0.82518 -0.17960 0.25020
 N167 N 0.84050 -0.16376 0.28097
 C168 C 0.87991 -0.11843 0.31284
 N169 N 0.89526 -0.14138 0.33885
 C170 C 0.90994 -0.12811 0.37111
 C171 C 0.90860 -0.08988 0.37898
 C172 C 0.89236 -0.06582 0.35284
 C173 C 0.87845 -0.07996 0.31942
 H174 H 0.86749 -0.12646 0.18421
 H175 H 0.80592 -0.20256 0.25333
 H176 H 0.92207 -0.14746 0.39084
 H177 H 0.89095 -0.03612 0.35803
 H178 H 0.89357 -0.09731 0.24086
 H179 H 0.86606 -0.06123 0.29923
 C180 C 0.86321 0.13228 0.72019
 C181 C 0.87419 0.12064 0.75585
 C182 C 0.85881 0.13795 0.78710
 C183 C 0.83190 0.16579 0.78258
 C184 C 0.82105 0.17603 0.74654
 N185 N 0.83721 0.15963 0.71648
 C186 C 0.87993 0.11588 0.68668
 N187 N 0.89534 0.13861 0.66051
 C188 C 0.91097 0.12498 0.62881
 C189 C 0.91048 0.08660 0.62169
 C190 C 0.89435 0.06275 0.64810
 C191 C 0.87953 0.07727 0.68097
 H192 H 0.86768 0.12973 0.81474
 H193 H 0.80043 0.19764 0.74244
 H194 H 0.92297 0.14415 0.60884
 H195 H 0.89357 0.03294 0.64345
 H196 H 0.89502 0.09910 0.75937
 H197 H 0.86717 0.05874 0.70134
 C198 C 1.13671 -0.14175 0.71757
 C199 C 1.13903 -0.18029 0.72395
 C200 C 1.15510 -0.19336 0.75677
 C201 C 1.16882 -0.16823 0.78331
 C202 C 1.16649 -0.12995 0.77567
 N203 N 1.15082 -0.11783 0.74338
 C204 C 1.11985 -0.12650 0.68327
 N205 N 1.13200 -0.09312 0.66993
 C206 C 1.11775 -0.07748 0.63850
 C207 C 1.08929 -0.09553 0.61879
 C208 C 1.07590 -0.12960 0.63238
 C209 C 1.09110 -0.14519 0.66454
 H210 H 1.15704 -0.22311 0.76144
 H211 H 1.17677 -0.10977 0.79553
 H212 H 1.12855 -0.05094 0.62909
 H213 H 1.05373 -0.14422 0.61814
 H214 H 1.12918 -0.20021 0.70361
 H215 H 1.07993 -0.17122 0.67487
 C216 C 0.28319 1.13589 1.14376
 C217 C 0.27706 1.13742 1.18238
 C218 C 0.24440 1.15341 1.19598
 C219 C 0.21777 1.16779 1.17128
 C220 C 0.22510 1.16606 1.13289
 N221 N 0.25725 1.15053 1.12027
 C222 C 0.31747 1.11949 1.12796
 N223 N 0.33062 1.13257 1.09484
 C224 C 0.36208 1.11890 1.07879
 C225 C 0.38206 1.09011 1.09613
 C226 C 0.36865 1.07574 1.12990
 C227 C 0.33644 1.09035 1.14593
 H228 H 0.24000 1.15485 1.22579
 H229 H 0.20517 1.17682 1.11301
 H230 H 0.37134 1.13045 1.05250
 H231 H 0.38306 1.05325 1.14396
 H232 H 0.29750 1.12711 1.20198
 H233 H 0.32628 1.07847 1.17172
 C234 C 0.28404 0.86619 0.85981
 C235 C 0.27943 0.86214 0.82119
 C236 C 0.24692 0.84615 0.80740
 C237 C 0.21882 0.83437 0.83190
 C238 C 0.22473 0.83848 0.87035
 N239 N 0.25680 0.85393 0.88317
 C240 C 0.31799 0.88297 0.87573
 N241 N 0.33021 0.87131 0.90971
 C242 C 0.36130 0.88555 0.92591
 C243 C 0.38176 0.91353 0.90786
 C244 C 0.36930 0.92642 0.87315
 C245 C 0.33754 0.91117 0.85695
 H246 H 0.24379 0.84273 0.77759
 H247 H 0.20373 0.82977 0.89014
 H248 H 0.36985 0.87513 0.95290
 H249 H 0.38416 0.94820 0.85846
 H250 H 0.30095 0.87056 0.80181
 H251 H 0.32810 0.92185 0.83037
 C252 C 0.71663 0.85742 1.13858
 C253 C 0.72365 0.81893 1.13877
 C254 C 0.75690 0.80555 1.15370
 C255 C 0.78335 0.83032 1.16829
 C256 C 0.77461 0.86848 1.16883
 N257 N 0.74202 0.88087 1.15410
 C258 C 0.68243 0.87328 1.12200
 N259 N 0.66942 0.90656 1.13480
 C260 C 0.63857 0.92315 1.12040
 C261 C 0.61915 0.90632 1.09100
 C262 C 0.63231 0.87230 1.07702
 C263 C 0.66385 0.85568 1.09243
 H264 H 0.76205 0.77582 1.15380
 H265 H 0.79393 0.88857 1.18012
 H266 H 0.62947 0.94956 1.13175
 H267 H 0.61828 0.85857 1.05414
 H268 H 0.70363 0.79924 1.12792
 H269 H 0.67393 0.82984 1.08065
 C270 C 0.71558 1.14514 0.86172
 C271 C 0.72242 1.18362 0.86014
 C272 C 0.75537 1.19657 0.84419
 C273 C 0.78174 1.17137 0.83006
 C274 C 0.77330 1.13317 0.83124
 N275 N 0.74095 1.12122 0.84681
 C276 C 0.68143 1.12976 0.87877
 N277 N 0.66834 1.09631 0.86664
 C278 C 0.63747 1.08013 0.88141
 C279 C 0.61813 1.09758 0.91053
 C280 C 0.63135 1.13181 0.92383
 C281 C 0.66290 1.14803 0.90801
 H282 H 0.76024 1.22630 0.84274
 H283 H 0.79259 1.11274 0.82039
 H284 H 0.62831 1.05354 0.87057
 H285 H 0.61735 1.14603 0.94646
 H286 H 0.70237 1.20360 0.87053
 H287 H 0.67304 1.17410 0.91919
 C288 C 0.14227 0.28368 0.13682
 C289 C 0.18079 0.27896 0.14132
 C290 C 0.19435 0.24641 0.15762
 C291 C 0.16973 0.21837 0.16928
 C292 C 0.13138 0.22443 0.16481
 N293 N 0.11878 0.25652 0.14905
 C294 C 0.12654 0.31767 0.11969
 N295 N 0.09232 0.32973 0.13071
 C296 C 0.07622 0.36081 0.11619
 C297 C 0.09462 0.38148 0.08856
 C298 C 0.12958 0.36920 0.07629
 C299 C 0.14568 0.33741 0.09183
 H300 H 0.22408 0.24314 0.16128
 H301 H 0.11151 0.20348 0.17342
 H302 H 0.04903 0.36920 0.12613
 H303 H 0.14454 0.38423 0.05481
 H304 H 0.20027 0.30040 0.13297
 H305 H 0.17247 0.32811 0.08163
 C306 C -0.12977 0.27977 -0.14109
 C307 C -0.12881 0.27331 -0.17965
 C308 C -0.14608 0.24181 -0.19423
 C309 C -0.16459 0.21668 -0.17063
 C310 C -0.16444 0.22390 -0.13215
 N311 N -0.14761 0.25498 -0.11859
 C312 C -0.11327 0.31364 -0.12452
 N313 N -0.12804 0.32756 -0.09244
 C314 C -0.11503 0.35925 -0.07630
 C315 C -0.08543 0.37883 -0.09261
 C316 C -0.06922 0.36451 -0.12513
 C317 C -0.08297 0.33196 -0.14112
 H318 H -0.14563 0.23768 -0.22406
 H319 H -0.17785 0.20494 -0.11292
 H320 H -0.12800 0.36919 -0.05095
 H321 H -0.04598 0.37851 -0.13831
 H322 H -0.11588 0.29284 -0.19863
 H323 H -0.06970 0.32120 -0.16596
 C324 C 0.13249 0.72565 -0.13140
 C325 C 0.11066 0.75550 -0.14420
 C326 C 0.12794 0.78651 -0.15992
 C327 C 0.16684 0.78791 -0.16295
 C328 C 0.18771 0.75809 -0.14868
 N329 N 0.17025 0.72809 -0.13351
 C330 C 0.11556 0.69135 -0.11625
 N331 N 0.13486 0.67088 -0.09081
 C332 C 0.12148 0.63843 -0.07658
 C333 C 0.08700 0.62454 -0.08850
 C334 C 0.06675 0.64499 -0.11489
 C335 C 0.08086 0.67841 -0.12878
 H336 H 0.11100 0.80928 -0.17016
 H337 H 0.21777 0.75817 -0.15060
 H338 H 0.13799 0.62335 -0.05635
 H339 H 0.04008 0.63512 -0.12487
 H340 H 0.08063 0.75506 -0.14203
 H341 H 0.06517 0.69332 -0.14977
 C342 C -0.13089 0.72341 0.13004
 C343 C -0.14765 0.75110 0.10802
 C344 C -0.16330 0.78229 0.12509
 C345 C -0.16249 0.78604 0.16401
 C346 C -0.14384 0.75862 0.18484
 N347 N -0.12893 0.72837 0.16760
 C348 C -0.11587 0.68865 0.11376
 N349 N -0.08852 0.66993 0.13223
 C350 C -0.07438 0.63710 0.11966
 C351 C -0.08834 0.62094 0.08695
 C352 C -0.11665 0.63959 0.06758
 C353 C -0.13047 0.67339 0.08083
 H354 H -0.17643 0.80338 0.10795
 H355 H -0.14208 0.76050 0.21483
 H356 H -0.05257 0.62352 0.13543
 H357 H -0.12825 0.62799 0.04227
 H358 H -0.14864 0.74888 0.07798
 H359 H -0.15299 0.68674 0.06591
 C360 C 1.13740 0.13013 0.72107
 C361 C 1.15089 0.10804 0.75047
 C362 C 1.16538 0.12512 0.78224
 C363 C 1.16663 0.16411 0.78485
 C364 C 1.15256 0.18516 0.75498
 N365 N 1.13838 0.16791 0.72440
 C366 C 1.12164 0.11353 0.68677
 N367 N 1.09546 0.13288 0.66726
 C368 C 1.08002 0.11956 0.63534
 C369 C 1.09126 0.08499 0.62097
 C370 C 1.11848 0.06474 0.64036
 C371 C 1.13367 0.07882 0.67324
 H372 H 1.17533 0.10792 0.80495
 H373 H 1.15311 0.21529 0.75587
 H374 H 1.05924 0.13612 0.62109
 H375 H 1.12804 0.03800 0.63012
 H376 H 1.14965 0.07795 0.74938
 H377 H 1.15510 0.06301 0.68735
 C378 C 0.86295 -0.14040 0.71974
 C379 C 0.86379 -0.17907 0.72514
 C380 C 0.84713 -0.19449 0.75674
 C381 C 0.82984 -0.17154 0.78360
 C382 C 0.83055 -0.13270 0.77721
 N383 N 0.84654 -0.11849 0.74597
 C384 C 0.87905 -0.12326 0.68579
 N385 N 0.90368 -0.14280 0.66450
 C386 C 0.91888 -0.12849 0.63286
 C387 C 0.90898 -0.09268 0.62067
 C388 C 0.88371 -0.07202 0.64213
 C389 C 0.86891 -0.08709 0.67481
 H390 H 0.84673 -0.22453 0.75951
 H391 H 0.81866 -0.11357 0.79725
 H392 H 0.93828 -0.14530 0.61704
 H393 H 0.87550 -0.04421 0.63375
 H394 H 0.87636 -0.19735 0.70470
 H395 H 0.84933 -0.07080 0.69098
 C396 C 1.14074 -0.14371 0.28425
 C397 C 1.14151 -0.18215 0.27702
 C398 C 1.15678 -0.19508 0.24372
 C399 C 1.17118 -0.16995 0.21741
 C400 C 1.17133 -0.13187 0.22645
 N401 N 1.15621 -0.11990 0.25907
 C402 C 1.12344 -0.12833 0.31839
 N403 N 1.13547 -0.09493 0.33173
 C404 C 1.12036 -0.07880 0.36253
 C405 C 1.09102 -0.09625 0.38154
 C406 C 1.07783 -0.13040 0.36802
 C407 C 1.09394 -0.14654 0.33654
 H408 H 1.15716 -0.22476 0.23833
 H409 H 1.18247 -0.11150 0.20726
 H410 H 1.13113 -0.05226 0.37192
 H411 H 1.05503 -0.14462 0.38172
 H412 H 1.13073 -0.20213 0.29686
 H413 H 1.08274 -0.17251 0.32619
 C414 C 0.86414 0.13574 0.28080
 C415 C 0.88734 0.15392 0.25519
 C416 C 0.87207 0.16948 0.22299
 C417 C 0.83342 0.16757 0.21613
 C418 C 0.81131 0.14897 0.24285
 N419 N 0.82698 0.13381 0.27381
 C420 C 0.87941 0.11903 0.31532
 N421 N 0.91359 0.12952 0.32795
 C422 C 0.92861 0.11541 0.35977
 C423 C 0.90903 0.08888 0.38075
 C424 C 0.87393 0.07744 0.36813
 C425 C 0.85893 0.09261 0.33562
 H426 H 0.89063 0.18249 0.20308
 H427 H 0.78142 0.14730 0.23964
 H428 H 0.95587 0.12479 0.36847
 H429 H 0.85796 0.05697 0.38352
 H430 H 0.91707 0.15571 0.25973
 H431 H 0.83175 0.08353 0.32634
 C432 C 0.13184 0.28006 -0.13889
 C433 C 0.10919 0.25092 -0.15185
 C434 C 0.12561 0.21870 -0.16615
 C435 C 0.16449 0.21540 -0.16773
 C436 C 0.18612 0.24505 -0.15425
 N437 N 0.16951 0.27608 -0.14023
 C438 C 0.11592 0.31477 -0.12332
 N439 N 0.13562 0.33408 -0.09730
 C440 C 0.12286 0.36635 -0.08204
 C441 C 0.08856 0.38125 -0.09333
 C442 C 0.06799 0.36206 -0.12040
 C443 C 0.08149 0.32884 -0.13539
 H444 H 0.10802 0.19615 -0.17563
 H445 H 0.21619 0.24360 -0.15506
 H446 H 0.13964 0.38044 -0.06136
 H447 H 0.04144 0.37268 -0.12997
 H448 H 0.07916 0.25256 -0.15030
 H449 H 0.06545 0.31488 -0.15671
 C450 C -0.13669 0.28225 0.14191
 C451 C -0.13847 0.27690 0.18058
 C452 C -0.15407 0.24434 0.19482
 C453 C -0.16802 0.21658 0.17080
 C454 C -0.16656 0.22377 0.13213
 N455 N -0.15117 0.25581 0.11897
 C456 C -0.11965 0.31602 0.12549
 N457 N -0.13195 0.32866 0.09187
 C458 C -0.11746 0.35951 0.07526
 C459 C -0.08857 0.37935 0.09249
 C460 C -0.07501 0.36643 0.12677
 C461 C -0.09045 0.33488 0.14336
 H462 H -0.15577 0.24110 0.22478
 H463 H -0.17649 0.20339 0.11229
 H464 H -0.12845 0.36841 0.04862
 H465 H -0.05252 0.38073 0.14082
 H466 H -0.12850 0.29785 0.19978
 H467 H -0.07912 0.32509 0.16953
 C468 C -0.14477 0.71729 -0.13480
 C469 C -0.18341 0.72263 -0.13644
 C470 C -0.19772 0.75463 -0.15324
 C471 C -0.17380 0.78177 -0.16860
 C472 C -0.13514 0.77499 -0.16634
 N473 N -0.12194 0.74346 -0.14997
 C474 C -0.12820 0.68345 -0.11798
 N475 N -0.09465 0.67109 -0.13067
 C476 C -0.07795 0.63999 -0.11683
 C477 C -0.09506 0.61946 -0.08827
 C478 C -0.12926 0.63207 -0.07425
 C479 C -0.14592 0.66396 -0.08901
 H480 H -0.22765 0.75761 -0.15519
 H481 H -0.11536 0.79509 -0.17697
 H482 H -0.05136 0.63139 -0.12813
 H483 H -0.14319 0.61725 -0.05195
 H484 H -0.20255 0.70193 -0.12582
 H485 H -0.17206 0.67345 -0.07740
 C486 C 0.13146 0.72449 0.13107
 C487 C 0.10987 0.75230 0.14814
 C488 C 0.12735 0.78322 0.16383
 C489 C 0.16627 0.78658 0.16276
 C490 C 0.18666 0.75906 0.14380
 N491 N 0.16902 0.72909 0.12886
 C492 C 0.11473 0.69003 0.11587
 N493 N 0.13305 0.67120 0.08848
 C494 C 0.12009 0.63866 0.07412
 C495 C 0.08710 0.62287 0.08783
 C496 C 0.06785 0.64161 0.11618
 C497 C 0.08151 0.67514 0.13025
 H498 H 0.11053 0.80438 0.17722
 H499 H 0.21662 0.76064 0.14185
 H500 H 0.13581 0.62500 0.05230
 H501 H 0.04234 0.63028 0.12760
 H502 H 0.07985 0.75042 0.14934
 H503 H 0.06667 0.68855 0.15279
 C504 C 0.27866 1.13874 0.86974
 C505 C 0.24915 1.15199 0.89176
 C506 C 0.21720 1.16597 0.87461
 C507 C 0.21453 1.16693 0.83560
 C508 C 0.24444 1.15298 0.81462
 N509 N 0.27522 1.13932 0.83195
 C510 C 0.31320 1.12363 0.88641
 N511 N 0.33310 1.09768 0.86716
 C512 C 0.36527 1.08280 0.88050
 C513 C 0.37948 1.09439 0.91500
 C514 C 0.35971 1.12140 0.93515
 C515 C 0.32658 1.13603 0.92103
 H516 H 0.19444 1.17587 0.89174
 H517 H 0.24347 1.15331 0.78448
 H518 H 0.37980 1.06216 0.86401
 H519 H 0.36982 1.13119 0.96183
 H520 H 0.25032 1.15101 0.92187
 H521 H 0.31215 1.15732 0.93674
 C522 C 0.28054 0.86616 1.13483
 C523 C 0.24536 0.88070 1.12604
 C524 C 0.21358 0.86403 1.14104
 C525 C 0.21710 0.83381 1.16545
 C526 C 0.25271 0.82033 1.17384
 N527 N 0.28324 0.83633 1.15814
 C528 C 0.31462 0.88258 1.11910
 N529 N 0.34033 0.86007 1.10264
 C530 C 0.37240 0.87372 1.08781
 C531 C 0.38043 0.91187 1.09019
 C532 C 0.35457 0.93546 1.10752
 C533 C 0.32134 0.92097 1.12154
 H534 H 0.18631 0.87484 1.13408
 H535 H 0.25609 0.79691 1.19257
 H536 H 0.39189 0.85471 1.07484
 H537 H 0.35987 0.96508 1.10977
 H538 H 0.24254 0.90424 1.10735
 H539 H 0.30143 0.93936 1.13481
 C540 C 0.72461 1.13291 1.13607
 C541 C 0.75341 1.11066 1.15031
 C542 C 0.78471 1.12746 1.16586
 C543 C 0.78779 1.16661 1.16749
 C544 C 0.75866 1.18773 1.15160
 N545 N 0.72837 1.17062 1.13672
 C546 C 0.69011 1.11650 1.12063
 N547 N 0.67050 1.13586 1.09452
 C548 C 0.63815 1.12284 1.07978
 C549 C 0.62345 1.08864 1.09174
 C550 C 0.64299 1.06839 1.11885
 C551 C 0.67627 1.08215 1.13332
 H552 H 0.80682 1.10978 1.17630
 H553 H 0.75923 1.21787 1.15234
 H554 H 0.62381 1.13937 1.05902
 H555 H 0.63252 1.04196 1.12895
 H556 H 0.75211 1.08057 1.14914
 H557 H 0.69037 1.06641 1.15481
 C558 C 0.71574 0.86404 0.85682
 C559 C 0.72170 0.86305 0.81820
 C560 C 0.75369 0.84615 0.80409
 C561 C 0.78024 0.83009 0.82822
 C562 C 0.77269 0.83140 0.86683
 N563 N 0.74120 0.84795 0.87982
 C564 C 0.68214 0.88145 0.87318
 N565 N 0.66898 0.86859 0.90640
 C566 C 0.63820 0.88318 0.92300
 C567 C 0.61891 0.91275 0.90618
 C568 C 0.63233 0.92689 0.87231
 C569 C 0.66384 0.91134 0.85571
 H570 H 0.75724 0.84482 0.77416
 H571 H 0.79225 0.82002 0.88674
 H572 H 0.62892 0.87171 0.94932
 H573 H 0.61844 0.94992 0.85859
 H574 H 0.70152 0.87440 0.79890
 H575 H 0.67400 0.92308 0.82986
   
