data_POSCAR
  _audit_creation_date              2014-09-24
  _audit_creation_method            'ToBaCCo'
  _symmetry_space_group_name_H-M    'P1'
  _symmetry_Int_Tables_number       1
  _symmetry_cell_setting            triclinic
  loop_
  _symmetry_equiv_pos_as_xyz
 x,y,z
_cell_length_a 45.0181
_cell_length_b 45.6154
_cell_length_c 45.3415
_cell_angle_alpha 90.176800
_cell_angle_beta 89.222800
_cell_angle_gamma 89.939000
loop_
  _atom_site_label
  _atom_site_type_symbol
  _atom_site_fract_x
  _atom_site_fract_y
  _atom_site_fract_z
N1 N 0.27080 0.21268 0.19113
 N2 N 0.26028 0.23775 0.18159
 C3 C 0.27635 0.24634 0.15789
 C4 C 0.29793 0.22540 0.15214
 C5 C 0.29368 0.20430 0.17365
 H6 H 0.27275 0.26638 0.14577
 H7 H 0.30698 0.18487 0.17700
 Cu8 Cu 0.22686 0.25676 0.20134
 Cu9 Cu 0.25561 0.19408 0.22687
 Cu10 Cu 0.19755 0.22920 0.26391
 N11 N 0.19384 0.27582 0.22166
 N12 N 0.18267 0.26531 0.24638
 C13 C 0.16008 0.28265 0.25555
 C14 C 0.15680 0.30509 0.23530
 C15 C 0.17866 0.30002 0.21416
 H16 H 0.14659 0.27880 0.27506
 H17 H 0.18320 0.31307 0.19477
 N18 N 0.21568 0.19238 0.27786
 N19 N 0.23739 0.17884 0.26347
 C20 C 0.24504 0.15463 0.27848
 C21 C 0.22737 0.15272 0.30362
 C22 C 0.20898 0.17709 0.30244
 H23 H 0.26271 0.13985 0.27193
 H24 H 0.19202 0.18330 0.31835
 H25 H 0.21290 0.21079 0.22502
 H26 H 0.24028 0.23215 0.24690
 N27 N 0.72531 -0.21604 0.19021
 N28 N 0.73195 -0.24352 0.18448
 C29 C 0.71513 -0.25315 0.16216
 C30 C 0.69684 -0.23039 0.15315
 C31 C 0.70420 -0.20709 0.17152
 H32 H 0.71636 -0.27510 0.15322
 H33 H 0.69427 -0.18552 0.17211
 Cu34 Cu 0.76184 -0.26445 0.20657
 Cu35 Cu 0.74264 -0.19501 0.22330
 Cu36 Cu 0.80227 -0.22833 0.25700
 N37 N 0.79931 -0.27974 0.22062
 N38 N 0.81519 -0.26569 0.24017
 C39 C 0.83989 -0.28132 0.24570
 C40 C 0.83957 -0.30670 0.22858
 C41 C 0.81329 -0.30472 0.21293
 H42 H 0.85671 -0.27455 0.26105
 H43 H 0.80475 -0.32013 0.19704
 N44 N 0.78555 -0.19053 0.27045
 N45 N 0.76305 -0.17764 0.25737
 C46 C 0.75584 -0.15307 0.27239
 C47 C 0.77464 -0.15034 0.29619
 C48 C 0.79324 -0.17452 0.29414
 H49 H 0.73742 -0.13892 0.26712
 H50 H 0.81068 -0.18044 0.30914
 H51 H 0.78268 -0.21683 0.21775
 H52 H 0.75726 -0.23041 0.24783
 N53 N 0.72827 0.21562 0.80719
 N54 N 0.74008 0.23961 0.81804
 C55 C 0.72455 0.24782 0.84231
 C56 C 0.70201 0.22770 0.84703
 C57 C 0.70511 0.20752 0.82436
 H58 H 0.72917 0.26700 0.85553
 H59 H 0.69096 0.18889 0.82011
 Cu60 Cu 0.77426 0.25783 0.79892
 Cu61 Cu 0.74256 0.19760 0.77065
 Cu62 Cu 0.80290 0.23069 0.73583
 N63 N 0.80865 0.27571 0.77984
 N64 N 0.81892 0.26575 0.75447
 C65 C 0.84148 0.28291 0.74521
 C66 C 0.84599 0.30470 0.76615
 C67 C 0.82469 0.29922 0.78790
 H68 H 0.85391 0.27933 0.72497
 H69 H 0.82052 0.31186 0.80771
 N70 N 0.78361 0.19502 0.72059
 N71 N 0.76030 0.18278 0.73352
 C72 C 0.75187 0.15938 0.71751
 C73 C 0.77098 0.15655 0.69355
 C74 C 0.79086 0.17946 0.69624
 H75 H 0.73345 0.14515 0.72304
 H76 H 0.80900 0.18461 0.68128
 H77 H 0.78592 0.21184 0.77388
 H78 H 0.76009 0.23529 0.75236
 N79 N 0.27812 -0.21970 0.80634
 N80 N 0.26643 -0.24412 0.81653
 C81 C 0.28239 -0.25334 0.83969
 C82 C 0.30510 -0.23348 0.84437
 C83 C 0.30164 -0.21240 0.82281
 H84 H 0.27762 -0.27272 0.85257
 H85 H 0.31551 -0.19339 0.81906
 Cu86 Cu 0.23064 -0.26036 0.79919
 Cu87 Cu 0.26218 -0.19914 0.77237
 Cu88 Cu 0.19793 -0.22762 0.74207
 N89 N 0.19488 -0.27661 0.78178
 N90 N 0.18190 -0.26320 0.75985
 C91 C 0.15761 -0.27835 0.75208
 C92 C 0.15510 -0.30291 0.76999
 C93 C 0.17929 -0.30091 0.78868
 H94 H 0.14333 -0.27213 0.73419
 H95 H 0.18520 -0.31594 0.80600
 N96 N 0.21767 -0.19198 0.72703
 N97 N 0.24259 -0.18160 0.73796
 C98 C 0.25132 -0.15826 0.72188
 C99 C 0.23077 -0.15358 0.69996
 C100 C 0.20975 -0.17534 0.70396
 H101 H 0.27112 -0.14552 0.72583
 H102 H 0.19056 -0.17926 0.69044
 H103 H 0.21888 -0.21220 0.77927
 H104 H 0.24173 -0.23480 0.75320
 N105 N 0.73124 -0.21468 0.80914
 N106 N 0.74651 -0.23564 0.82176
 C107 C 0.73110 -0.24557 0.84538
 C108 C 0.70467 -0.22997 0.84766
 C109 C 0.70569 -0.21051 0.82426
 H110 H 0.73831 -0.26330 0.85934
 H111 H 0.68902 -0.19459 0.81841
 Cu112 Cu 0.78459 -0.24864 0.80565
 Cu113 Cu 0.74481 -0.19509 0.77338
 Cu114 Cu 0.80598 -0.22538 0.73818
 N115 N 0.81588 -0.26834 0.78314
 N116 N 0.82353 -0.25961 0.75654
 C117 C 0.84474 -0.27751 0.74561
 C118 C 0.85101 -0.29873 0.76653
 C119 C 0.83215 -0.29205 0.79018
 H120 H 0.85496 -0.27490 0.72410
 H121 H 0.82970 -0.30388 0.81068
 N122 N 0.78529 -0.19053 0.72330
 N123 N 0.76213 -0.17870 0.73691
 C124 C 0.75303 -0.15525 0.72147
 C125 C 0.77132 -0.15218 0.69685
 C126 C 0.79154 -0.17497 0.69884
 H127 H 0.73418 -0.14170 0.72748
 H128 H 0.80960 -0.17983 0.68367
 H129 H 0.76540 -0.23283 0.75868
 H130 H 0.78982 -0.20437 0.77584
 N131 N 0.27209 0.21656 0.81127
 N132 N 0.25867 0.23935 0.82323
 C133 C 0.27469 0.24889 0.84623
 C134 C 0.29952 0.23114 0.84879
 C135 C 0.29704 0.21084 0.82618
 H136 H 0.26904 0.26773 0.85968
 H137 H 0.31225 0.19319 0.82088
 Cu138 Cu 0.22214 0.25506 0.80712
 Cu139 Cu 0.25667 0.19639 0.77692
 Cu140 Cu 0.19301 0.22480 0.74600
 N141 N 0.18721 0.27138 0.78838
 N142 N 0.17586 0.25943 0.76468
 C143 C 0.15245 0.27546 0.75605
 C144 C 0.14893 0.29890 0.77530
 C145 C 0.17145 0.29554 0.79556
 H146 H 0.13950 0.27083 0.73669
 H147 H 0.17620 0.30975 0.81401
 N148 N 0.21359 0.18988 0.73028
 N149 N 0.23778 0.17897 0.74215
 C150 C 0.24684 0.15559 0.72619
 C151 C 0.22749 0.15160 0.70306
 C152 C 0.20667 0.17378 0.70641
 H153 H 0.26649 0.14283 0.73067
 H154 H 0.18790 0.17797 0.69243
 H155 H 0.23582 0.23299 0.75981
 H156 H 0.21261 0.20802 0.78324
 N157 N 0.27420 -0.22088 0.19617
 N158 N 0.25829 -0.24060 0.18233
 C159 C 0.27337 -0.24978 0.15815
 C160 C 0.30026 -0.23499 0.15671
 C161 C 0.29989 -0.21682 0.18130
 H162 H 0.26537 -0.26618 0.14295
 H163 H 0.31691 -0.20156 0.18790
 Cu164 Cu 0.21948 -0.25266 0.19717
 Cu165 Cu 0.26027 -0.20149 0.23210
 Cu166 Cu 0.19612 -0.22902 0.26405
 N167 N 0.18696 -0.27158 0.21837
 N168 N 0.17835 -0.26267 0.24471
 C169 C 0.15629 -0.28009 0.25459
 C170 C 0.15063 -0.30101 0.23322
 C171 C 0.17051 -0.29488 0.21047
 H172 H 0.14507 -0.27762 0.27569
 H173 H 0.17331 -0.30690 0.19003
 N174 N 0.21743 -0.19505 0.28012
 N175 N 0.24229 -0.18486 0.26834
 C176 C 0.25156 -0.16181 0.28443
 C177 C 0.23136 -0.15713 0.30726
 C178 C 0.21004 -0.17862 0.30380
 H179 H 0.27116 -0.14894 0.27956
 H180 H 0.19069 -0.18217 0.31769
 H181 H 0.23735 -0.23843 0.24537
 H182 H 0.21525 -0.20862 0.22756
 N183 N 0.72421 0.21921 0.19433
 N184 N 0.73675 0.24259 0.18285
 C185 C 0.72128 0.25110 0.15917
 C186 C 0.69763 0.23209 0.15563
 C187 C 0.70023 0.21209 0.17841
 H188 H 0.72659 0.27002 0.14583
 H189 H 0.68588 0.19364 0.18304
 Cu190 Cu 0.77153 0.26052 0.20011
 Cu191 Cu 0.73997 0.19988 0.22896
 Cu192 Cu 0.80596 0.22704 0.25638
 N193 N 0.81010 0.27320 0.21380
 N194 N 0.82321 0.26070 0.23622
 C195 C 0.84849 0.27525 0.24206
 C196 C 0.85148 0.29791 0.22199
 C197 C 0.82673 0.29587 0.20437
 H198 H 0.86345 0.26992 0.25972
 H199 H 0.82074 0.31049 0.18670
 N200 N 0.78502 0.19320 0.27374
 N201 N 0.75952 0.18330 0.26374
 C202 C 0.75050 0.16063 0.28058
 C203 C 0.77147 0.15586 0.30207
 C204 C 0.79305 0.17690 0.29703
 H205 H 0.73039 0.14821 0.27724
 H206 H 0.81289 0.18036 0.30973
 H207 H 0.76198 0.23539 0.24684
 H208 H 0.78331 0.21236 0.21970
 C209 C 0.24177 -0.01538 0.52927
 C210 C 0.23832 0.01543 0.52938
 C211 C 0.23669 0.03038 0.50247
 C212 C 0.23820 0.01541 0.47541
 C213 C 0.24183 -0.01540 0.47532
 C214 C 0.24406 -0.03031 0.50223
 H215 H 0.24586 -0.05403 0.50216
 H216 H 0.23465 0.05408 0.50259
 C217 C 0.75962 0.01566 0.52491
 C218 C 0.76291 -0.01516 0.52477
 C219 C 0.76467 -0.03010 0.49769
 C220 C 0.76342 -0.01507 0.47078
 C221 C 0.76009 0.01576 0.47100
 C222 C 0.75772 0.03064 0.49805
 H223 H 0.75610 0.05437 0.49819
 H224 H 0.76657 -0.05380 0.49757
 C225 C 0.47371 0.24036 -0.01603
 C226 C 0.47266 0.23978 0.01512
 C227 C 0.49923 0.23971 0.03087
 C228 C 0.52691 0.23959 0.01630
 C229 C 0.52798 0.24011 -0.01485
 C230 C 0.50140 0.24077 -0.03060
 H231 H 0.50229 0.24103 -0.05452
 H232 H 0.49833 0.23919 0.05479
 C233 C 0.52816 0.75375 -0.01600
 C234 C 0.52813 0.75417 0.01516
 C235 C 0.50101 0.75381 0.03072
 C236 C 0.47377 0.75372 0.01599
 C237 C 0.47377 0.75311 -0.01519
 C238 C 0.50093 0.75281 -0.03073
 H239 H 0.50088 0.75261 -0.05466
 H240 H 0.50114 0.75431 0.05463
 C241 C 0.01415 0.47377 0.24094
 C242 C -0.01640 0.47313 0.23411
 C243 C -0.03198 0.49962 0.23164
 C244 C -0.01783 0.52674 0.23514
 C245 C 0.01263 0.52741 0.24215
 C246 C 0.02810 0.50090 0.24557
 H247 H 0.05173 0.50145 0.24985
 H248 H -0.05552 0.49917 0.22685
 C249 C 0.01494 0.47400 0.76397
 C250 C -0.01590 0.47442 0.75866
 C251 C -0.03056 0.50130 0.75551
 C252 C -0.01526 0.52791 0.75813
 C253 C 0.01562 0.52765 0.76344
 C254 C 0.03030 0.50066 0.76640
 H255 H 0.05411 0.50036 0.76970
 H256 H -0.05436 0.50151 0.75211
 C257 C 0.36793 0.22894 0.08770
 C258 C 0.35833 0.20162 0.09834
 C259 C 0.33530 0.20041 0.11921
 C260 C 0.32160 0.22628 0.12924
 C261 C 0.33153 0.25310 0.11768
 N262 N 0.35436 0.25377 0.09778
 C263 C 0.39369 0.23159 0.06739
 N264 N 0.41146 0.25562 0.06953
 C265 C 0.43634 0.25897 0.05260
 C266 C 0.44441 0.23742 0.03192
 C267 C 0.42611 0.21283 0.02874
 C268 C 0.40070 0.20981 0.04644
 H269 H 0.32827 0.17927 0.12753
 H270 H 0.32181 0.27359 0.12504
 H271 H 0.44999 0.27827 0.05546
 H272 H 0.43185 0.19577 0.01299
 H273 H 0.36908 0.18146 0.09142
 H274 H 0.38677 0.19070 0.04372
 C275 C 0.62990 0.76614 0.08907
 C276 C 0.63750 0.79319 0.10162
 C277 C 0.65979 0.79444 0.12269
 C278 C 0.67493 0.76884 0.13118
 C279 C 0.66689 0.74229 0.11746
 N280 N 0.64469 0.74161 0.09745
 C281 C 0.60494 0.76329 0.06844
 N282 N 0.58810 0.73852 0.06929
 C283 C 0.56396 0.73490 0.05199
 C284 C 0.55575 0.75691 0.03223
 C285 C 0.57314 0.78230 0.03035
 C286 C 0.59776 0.78562 0.04847
 H287 H 0.66497 0.81556 0.13218
 H288 H 0.67745 0.72182 0.12306
 H289 H 0.55099 0.71500 0.05385
 H290 H 0.56728 0.79973 0.01532
 H291 H 0.62574 0.81306 0.09598
 H292 H 0.61097 0.80537 0.04684
 C293 C 0.63265 0.23055 -0.08782
 C294 C 0.64153 0.20345 -0.09977
 C295 C 0.66438 0.20248 -0.12084
 C296 C 0.67863 0.22836 -0.12977
 C297 C 0.66947 0.25494 -0.11690
 N298 N 0.64675 0.25541 -0.09684
 C299 C 0.60700 0.23296 -0.06731
 N300 N 0.58933 0.25715 -0.06865
 C301 C 0.56444 0.26018 -0.05162
 C302 C 0.55626 0.23810 -0.03171
 C303 C 0.57448 0.21333 -0.02935
 C304 C 0.59989 0.21065 -0.04713
 H305 H 0.67082 0.18151 -0.13019
 H306 H 0.67968 0.27543 -0.12340
 H307 H 0.55086 0.27963 -0.05383
 H308 H 0.56868 0.19586 -0.01422
 H309 H 0.63034 0.18333 -0.09370
 H310 H 0.61374 0.19138 -0.04511
 C311 C 0.37258 0.76287 -0.09023
 C312 C 0.36411 0.79009 -0.10182
 C313 C 0.34205 0.79128 -0.12311
 C314 C 0.32815 0.76550 -0.13267
 C315 C 0.33698 0.73877 -0.12026
 N316 N 0.35892 0.73809 -0.09993
 C317 C 0.39718 0.76030 -0.06913
 N318 N 0.41493 0.73612 -0.07031
 C319 C 0.43894 0.73301 -0.05272
 C320 C 0.44610 0.75497 -0.03234
 C321 C 0.42770 0.77969 -0.03011
 C322 C 0.40322 0.78246 -0.04846
 H323 H 0.33583 0.81237 -0.13201
 H324 H 0.32704 0.71835 -0.12723
 H325 H 0.45266 0.71360 -0.05489
 H326 H 0.43271 0.79709 -0.01466
 H327 H 0.37496 0.81018 -0.09521
 H328 H 0.38925 0.80171 -0.04652
 C329 C 0.09262 0.37433 0.23585
 C330 C 0.10661 0.36602 0.20927
 C331 C 0.12743 0.34341 0.20916
 C332 C 0.13441 0.32891 0.23541
 C333 C 0.11992 0.33783 0.26156
 N334 N 0.09986 0.36018 0.26117
 C335 C 0.07109 0.39885 0.23702
 N336 N 0.06900 0.41563 0.26188
 C337 C 0.05061 0.43926 0.26388
 C338 C 0.03281 0.44700 0.23998
 C339 C 0.03419 0.42974 0.21439
 C340 C 0.05313 0.40560 0.21287
 H341 H 0.13790 0.33726 0.18842
 H342 H 0.12487 0.32745 0.28234
 H343 H 0.05002 0.45212 0.28398
 H344 H 0.02094 0.43523 0.19542
 H345 H 0.10212 0.37725 0.18882
 H346 H 0.05364 0.39241 0.19300
 C347 C 0.09110 0.62955 0.76592
 C348 C 0.08836 0.65425 0.74775
 C349 C 0.10943 0.67661 0.74917
 C350 C 0.13329 0.67486 0.76888
 C351 C 0.13458 0.65011 0.78732
 N352 N 0.11391 0.62852 0.78528
 C353 C 0.07007 0.60450 0.76493
 N354 N 0.07026 0.58475 0.78741
 C355 C 0.05268 0.56053 0.78771
 C356 C 0.03343 0.55498 0.76431
 C357 C 0.03286 0.57486 0.74084
 C358 C 0.05107 0.59959 0.74101
 H359 H 0.10667 0.69522 0.73478
 H360 H 0.15214 0.64744 0.80309
 H361 H 0.05383 0.54555 0.80613
 H362 H 0.01884 0.57085 0.72203
 H363 H 0.07015 0.65671 0.73268
 H364 H 0.05072 0.61396 0.72214
 C365 C -0.09698 0.62508 0.22567
 C366 C -0.12225 0.62349 0.20796
 C367 C -0.14305 0.64611 0.20878
 C368 C -0.13916 0.67053 0.22738
 C369 C -0.11351 0.67114 0.24487
 N370 N -0.09355 0.64872 0.24369
 C371 C -0.07485 0.60099 0.22637
 N372 N -0.05809 0.59734 0.25092
 C373 C -0.03872 0.57461 0.25376
 C374 C -0.03574 0.55369 0.23119
 C375 C -0.05195 0.55755 0.20535
 C376 C -0.07128 0.58124 0.20271
 H377 H -0.16225 0.64398 0.19491
 H378 H -0.10919 0.68917 0.25969
 H379 H -0.02653 0.57226 0.27403
 H380 H -0.04989 0.54198 0.18735
 H381 H -0.12657 0.60468 0.19410
 H382 H -0.08325 0.58381 0.18237
 C383 C -0.09189 0.37368 0.76289
 C384 C -0.10748 0.36808 0.78920
 C385 C -0.12814 0.34535 0.79029
 C386 C -0.13293 0.32754 0.76538
 C387 C -0.11616 0.33356 0.73964
 N388 N -0.09669 0.35633 0.73896
 C389 C -0.07101 0.39856 0.76079
 N390 N -0.05708 0.40832 0.78544
 C391 C -0.03860 0.43185 0.78495
 C392 C -0.03388 0.44737 0.75871
 C393 C -0.04786 0.43777 0.73304
 C394 C -0.06613 0.41305 0.73389
 H395 H -0.13996 0.34172 0.81086
 H396 H -0.11895 0.32086 0.71971
 H397 H -0.02820 0.43891 0.80516
 H398 H -0.04469 0.44946 0.71249
 H399 H -0.10422 0.38157 0.80858
 H400 H -0.07705 0.40592 0.71399
 C401 C 0.23260 0.08892 0.37260
 C402 C 0.24734 0.08373 0.34558
 C403 C 0.24544 0.10439 0.32304
 C404 C 0.22878 0.13018 0.32712
 C405 C 0.21382 0.13415 0.35421
 N406 N 0.21612 0.11379 0.37588
 C407 C 0.23426 0.06835 0.39778
 N408 N 0.21323 0.07035 0.41957
 C409 C 0.21373 0.05327 0.44404
 C410 C 0.23656 0.03275 0.44783
 C411 C 0.25853 0.03023 0.42576
 C412 C 0.25748 0.04793 0.40072
 H413 H 0.25692 0.09996 0.30239
 H414 H 0.20066 0.15357 0.35851
 H415 H 0.19641 0.05586 0.46064
 H416 H 0.27687 0.01511 0.42827
 H417 H 0.25992 0.06389 0.34156
 H418 H 0.27524 0.04617 0.38453
 C419 C 0.76822 0.09177 0.62539
 C420 C 0.79541 0.10491 0.63245
 C421 C 0.79631 0.12611 0.65466
 C422 C 0.77030 0.13398 0.67010
 C423 C 0.74360 0.12018 0.66253
 N424 N 0.74317 0.09996 0.64043
 C425 C 0.76595 0.07048 0.60092
 N426 N 0.74107 0.07040 0.58417
 C427 C 0.73820 0.05250 0.56034
 C428 C 0.76117 0.03317 0.55237
 C429 C 0.78663 0.03226 0.56977
 C430 C 0.78913 0.05088 0.59407
 H431 H 0.81737 0.13619 0.65984
 H432 H 0.72298 0.12589 0.67367
 H433 H 0.71820 0.05363 0.54740
 H434 H 0.80483 0.01765 0.56411
 H435 H 0.81563 0.09949 0.62045
 H436 H 0.80897 0.04998 0.60725
 C437 C 0.23338 -0.08977 0.63109
 C438 C 0.20599 -0.10153 0.64030
 C439 C 0.20515 -0.12218 0.66291
 C440 C 0.23143 -0.13099 0.67659
 C441 C 0.25833 -0.11844 0.66700
 N442 N 0.25866 -0.09869 0.64457
 C443 C 0.23550 -0.06914 0.60605
 N444 N 0.26004 -0.06987 0.58815
 C445 C 0.26281 -0.05252 0.56393
 C446 C 0.24010 -0.03286 0.55672
 C447 C 0.21492 -0.03125 0.57517
 C448 C 0.21254 -0.04929 0.59986
 H449 H 0.18391 -0.13122 0.66966
 H450 H 0.27915 -0.12484 0.67674
 H451 H 0.28258 -0.05422 0.55018
 H452 H 0.19689 -0.01643 0.57012
 H453 H 0.18551 -0.09556 0.62962
 H454 H 0.19297 -0.04767 0.61390
 C455 C 0.76940 -0.08718 0.36631
 C456 C 0.75434 -0.08190 0.33990
 C457 C 0.75634 -0.10229 0.31691
 C458 C 0.77343 -0.12785 0.31994
 C459 C 0.78881 -0.13183 0.34636
 N460 N 0.78636 -0.11179 0.36849
 C461 C 0.76754 -0.06707 0.39205
 N462 N 0.78843 -0.06945 0.41337
 C463 C 0.78780 -0.05280 0.43826
 C464 C 0.76500 -0.03229 0.44297
 C465 C 0.74312 -0.02946 0.42146
 C466 C 0.74427 -0.04675 0.39600
 H467 H 0.74454 -0.09789 0.29677
 H468 H 0.80233 -0.15108 0.34984
 H469 H 0.80503 -0.05565 0.45443
 H470 H 0.72478 -0.01434 0.42471
 H471 H 0.74137 -0.06224 0.33670
 H472 H 0.72658 -0.04471 0.38026
 C473 C 0.63315 0.75987 -0.08977
 C474 C 0.66057 0.74619 -0.08449
 C475 C 0.68391 0.74939 -0.10489
 C476 C 0.68018 0.76629 -0.13041
 C477 C 0.65251 0.77976 -0.13465
 N478 N 0.63017 0.77626 -0.11458
 C479 C 0.60723 0.75767 -0.06934
 N480 N 0.58453 0.77709 -0.07267
 C481 C 0.55947 0.77637 -0.05571
 C482 C 0.55601 0.75502 -0.03380
 C483 C 0.57895 0.73464 -0.02989
 C484 C 0.60459 0.73585 -0.04758
 H485 H 0.70493 0.73890 -0.10043
 H486 H 0.64833 0.79286 -0.15396
 H487 H 0.54223 0.79247 -0.05934
 H488 H 0.57676 0.71750 -0.01353
 H489 H 0.66436 0.73359 -0.06476
 H490 H 0.62157 0.71941 -0.04458
 C491 C 0.37040 0.23830 -0.08948
 C492 C 0.34364 0.25341 -0.08403
 C493 C 0.32053 0.25115 -0.10416
 C494 C 0.32379 0.23371 -0.12957
 C495 C 0.35073 0.21871 -0.13397
 N496 N 0.37292 0.22137 -0.11416
 C497 C 0.39604 0.23958 -0.06932
 N498 N 0.41800 0.21927 -0.07286
 C499 C 0.44269 0.21903 -0.05600
 C500 C 0.44643 0.24022 -0.03395
 C501 C 0.42430 0.26153 -0.02988
 C502 C 0.39908 0.26134 -0.04749
 H503 H 0.30002 0.26277 -0.09955
 H504 H 0.35445 0.20512 -0.15324
 H505 H 0.45936 0.20226 -0.05978
 H506 H 0.42679 0.27856 -0.01341
 H507 H 0.34014 0.26648 -0.06438
 H508 H 0.38277 0.27848 -0.04432
 C509 C 0.37015 0.75752 0.09180
 C510 C 0.34297 0.74322 0.08708
 C511 C 0.32018 0.74555 0.10823
 C512 C 0.32423 0.76217 0.13401
 C513 C 0.35165 0.77627 0.13767
 N514 N 0.37344 0.77364 0.11684
 C515 C 0.39548 0.75617 0.07057
 N516 N 0.41754 0.77635 0.07330
 C517 C 0.44221 0.77626 0.05576
 C518 C 0.44596 0.75474 0.03391
 C519 C 0.42360 0.73367 0.03051
 C520 C 0.39831 0.73428 0.04875
 H521 H 0.29937 0.73455 0.10414
 H522 H 0.35605 0.78928 0.15707
 H523 H 0.45899 0.79290 0.05902
 H524 H 0.42605 0.71638 0.01424
 H525 H 0.33895 0.73077 0.06721
 H526 H 0.38184 0.71728 0.04622
 C527 C 0.62895 0.23689 0.09135
 C528 C 0.65550 0.25251 0.08680
 C529 C 0.67794 0.25084 0.10768
 C530 C 0.67425 0.23347 0.13296
 C531 C 0.64767 0.21772 0.13635
 N532 N 0.62607 0.21986 0.11584
 C533 C 0.60385 0.23803 0.07055
 N534 N 0.58217 0.21735 0.07306
 C535 C 0.55782 0.21721 0.05571
 C536 C 0.55413 0.23892 0.03428
 C537 C 0.57603 0.26053 0.03120
 C538 C 0.60089 0.26023 0.04927
 H539 H 0.69824 0.26297 0.10379
 H540 H 0.64372 0.20408 0.15546
 H541 H 0.54130 0.20022 0.05871
 H542 H 0.57354 0.27797 0.01526
 H543 H 0.65932 0.26564 0.06733
 H544 H 0.61694 0.27769 0.04696
 C545 C -0.08866 0.63080 0.75924
 C546 C -0.09404 0.64835 0.73459
 C547 C -0.11370 0.67190 0.73705
 C548 C -0.12844 0.67799 0.76400
 C549 C -0.12199 0.65993 0.78825
 N550 N -0.10247 0.63731 0.78531
 C551 C -0.06856 0.60523 0.75755
 N552 N -0.05260 0.59772 0.78169
 C553 C -0.03464 0.57375 0.78198
 C554 C -0.03260 0.55542 0.75717
 C555 C -0.04892 0.56258 0.73213
 C556 C -0.06675 0.58761 0.73212
 H557 H -0.11754 0.68483 0.71754
 H558 H -0.13214 0.66374 0.80966
 H559 H -0.02259 0.56856 0.80180
 H560 H -0.04804 0.54865 0.71275
 H561 H -0.08298 0.64412 0.71365
 H562 H -0.07973 0.59250 0.71283
 C563 C -0.08596 0.36827 0.22024
 C564 C -0.09998 0.35965 0.19409
 C565 C -0.11991 0.33630 0.19459
 C566 C -0.12554 0.32102 0.22084
 C567 C -0.10991 0.32919 0.24612
 N568 N -0.09104 0.35245 0.24525
 C569 C -0.06672 0.39462 0.22190
 N570 N -0.04937 0.39837 0.24602
 C571 C -0.03253 0.42276 0.25009
 C572 C -0.03283 0.44540 0.22926
 C573 C -0.05035 0.44200 0.20420
 C574 C -0.06732 0.41680 0.20043
 H575 H -0.13096 0.33024 0.17441
 H576 H -0.11350 0.31791 0.26681
 H577 H -0.01956 0.42478 0.26992
 H578 H -0.05118 0.45908 0.18769
 H579 H -0.09592 0.37066 0.17337
 H580 H -0.08137 0.41549 0.18137
 C581 C 0.08658 0.36962 0.76964
 C582 C 0.08188 0.34382 0.75334
 C583 C 0.10209 0.32071 0.75532
 C584 C 0.12685 0.32298 0.77367
 C585 C 0.13031 0.34884 0.79015
 N586 N 0.11046 0.37112 0.78769
 C587 C 0.06660 0.39539 0.76788
 N588 N 0.06755 0.41593 0.78973
 C589 C 0.05088 0.44078 0.78924
 C590 C 0.03191 0.44619 0.76561
 C591 C 0.03064 0.42551 0.74275
 C592 C 0.04787 0.40011 0.74377
 H593 H 0.09812 0.30102 0.74261
 H594 H 0.14899 0.35170 0.80459
 H595 H 0.05255 0.45637 0.80718
 H596 H 0.01690 0.42938 0.72373
 H597 H 0.06275 0.34115 0.73944
 H598 H 0.04711 0.38504 0.72536
 C599 C 0.08762 0.62905 0.23809
 C600 C 0.09716 0.63937 0.21041
 C601 C 0.11777 0.66215 0.20878
 C602 C 0.12857 0.67500 0.23465
 C603 C 0.11810 0.66438 0.26190
 N604 N 0.09838 0.64184 0.26293
 C605 C 0.06679 0.60406 0.24049
 N606 N 0.05043 0.59603 0.21674
 C607 C 0.03202 0.57245 0.21729
 C608 C 0.02975 0.55506 0.24265
 C609 C 0.04613 0.56299 0.26747
 C610 C 0.06445 0.58767 0.26660
 H611 H 0.12507 0.66981 0.18731
 H612 H 0.12601 0.67351 0.28238
 H613 H 0.01995 0.56669 0.19761
 H614 H 0.04502 0.54983 0.28731
 H615 H 0.08918 0.62961 0.19021
 H616 H 0.07729 0.59330 0.28582
 C617 C 0.76572 -0.08869 0.62763
 C618 C 0.74953 -0.08426 0.65400
 C619 C 0.75134 -0.10491 0.67660
 C620 C 0.76936 -0.12987 0.67320
 C621 C 0.78547 -0.13322 0.64668
 N622 N 0.78324 -0.11291 0.62499
 C623 C 0.76468 -0.06806 0.60246
 N624 N 0.78625 -0.07012 0.58119
 C625 C 0.78645 -0.05305 0.55670
 C626 C 0.76383 -0.03247 0.55236
 C627 C 0.74135 -0.02982 0.57390
 C628 C 0.74165 -0.04753 0.59896
 H629 H 0.73882 -0.10110 0.69678
 H630 H 0.79957 -0.15207 0.64285
 H631 H 0.80416 -0.05572 0.54053
 H632 H 0.72317 -0.01459 0.57093
 H633 H 0.73592 -0.06500 0.65755
 H634 H 0.72351 -0.04563 0.61471
 C635 C 0.23397 -0.09156 0.37472
 C636 C 0.20662 -0.10375 0.36668
 C637 C 0.20579 -0.12504 0.34459
 C638 C 0.23206 -0.13410 0.33028
 C639 C 0.25893 -0.12118 0.33874
 N640 N 0.25926 -0.10077 0.36068
 C641 C 0.23608 -0.07024 0.39920
 N642 N 0.26064 -0.07046 0.41641
 C643 C 0.26331 -0.05260 0.44029
 C644 C 0.24044 -0.03300 0.44789
 C645 C 0.21529 -0.03182 0.43007
 C646 C 0.21303 -0.05035 0.40568
 H647 H 0.18456 -0.13432 0.33870
 H648 H 0.27973 -0.12774 0.32846
 H649 H 0.28307 -0.05396 0.45356
 H650 H 0.19715 -0.01705 0.43544
 H651 H 0.18616 -0.09757 0.37786
 H652 H 0.19345 -0.04915 0.39216
 C653 C 0.76906 0.09148 0.37038
 C654 C 0.79647 0.10315 0.36108
 C655 C 0.79727 0.12410 0.33874
 C656 C 0.77091 0.13332 0.32547
 C657 C 0.74400 0.12094 0.33523
 N658 N 0.74372 0.10087 0.35734
 C659 C 0.76689 0.07049 0.39506
 N660 N 0.74220 0.07091 0.41276
 C661 C 0.73923 0.05315 0.43664
 C662 C 0.76189 0.03340 0.44369
 C663 C 0.78720 0.03205 0.42542
 C664 C 0.78979 0.05051 0.40106
 H665 H 0.81852 0.13299 0.33184
 H666 H 0.72312 0.12764 0.32581
 H667 H 0.71937 0.05466 0.45029
 H668 H 0.80519 0.01715 0.43039
 H669 H 0.81702 0.09682 0.37143
 H670 H 0.80946 0.04911 0.38714
 C671 C 0.23361 0.08835 0.63318
 C672 C 0.24991 0.08407 0.65904
 C673 C 0.24783 0.10460 0.68187
 C674 C 0.22938 0.12927 0.67926
 C675 C 0.21298 0.13237 0.65335
 N676 N 0.21554 0.11221 0.63135
 C677 C 0.23521 0.06798 0.60766
 N678 N 0.21379 0.06987 0.58681
 C679 C 0.21407 0.05298 0.56209
 C680 C 0.23703 0.03273 0.55710
 C681 C 0.25939 0.03030 0.57815
 C682 C 0.25861 0.04785 0.60343
 H683 H 0.26050 0.10095 0.70163
 H684 H 0.19851 0.15099 0.65020
 H685 H 0.19646 0.05547 0.54627
 H686 H 0.27780 0.01533 0.57467
 H687 H 0.26387 0.06505 0.66200
 H688 H 0.27666 0.04612 0.61879
   
