data_POSCAR
  _audit_creation_date              2014-09-24
  _audit_creation_method            'ToBaCCo'
  _symmetry_space_group_name_H-M    'P1'
  _symmetry_Int_Tables_number       1
  _symmetry_cell_setting            triclinic
  loop_
  _symmetry_equiv_pos_as_xyz
 x,y,z
_cell_length_a 39.6782
_cell_length_b 39.6646
_cell_length_c 39.7398
_cell_angle_alpha 89.943900
_cell_angle_beta 89.907100
_cell_angle_gamma 90.010500
loop_
  _atom_site_label
  _atom_site_type_symbol
  _atom_site_fract_x
  _atom_site_fract_y
  _atom_site_fract_z
C1 C 0.16387 0.16491 0.20863
 C2 C 0.14982 0.19346 0.19284
 C3 C 0.16644 0.21037 0.16667
 C4 C 0.19696 0.19739 0.15448
 C5 C 0.21120 0.16768 0.16797
 C6 C 0.19426 0.15195 0.19523
 H7 H 0.12515 0.20241 0.20013
 H8 H 0.21043 0.21183 0.13571
 H9 H 0.20497 0.12961 0.20620
 C10 C -0.16543 0.83567 0.20941
 C11 C -0.15271 0.80596 0.19439
 C12 C -0.16526 0.79387 0.16366
 C13 C -0.19138 0.81154 0.14781
 C14 C -0.20617 0.83985 0.16292
 C15 C -0.19284 0.85191 0.19341
 H16 H -0.13413 0.79090 0.20736
 H17 H -0.20023 0.80321 0.12345
 H18 H -0.20368 0.87446 0.20401
 C19 C -0.15898 0.15895 -0.20489
 C20 C -0.18978 0.14628 -0.19222
 C21 C -0.20451 0.15926 -0.16274
 C22 C -0.18879 0.18634 -0.14628
 C23 C -0.15853 0.20005 -0.15848
 C24 C -0.14343 0.18549 -0.18701
 H25 H -0.20367 0.12747 -0.20611
 H26 H -0.20033 0.19698 -0.12404
 H27 H -0.11878 0.19441 -0.19440
 C28 C 0.16697 0.83150 -0.21158
 C29 C 0.15342 0.80167 -0.19742
 C30 C 0.16633 0.78766 -0.16767
 C31 C 0.19364 0.80352 -0.15190
 C32 C 0.20923 0.83187 -0.16623
 C33 C 0.19555 0.84585 -0.19579
 H34 H 0.13384 0.78796 -0.21040
 H35 H 0.20283 0.79369 -0.12822
 H36 H 0.20708 0.86833 -0.20583
 C37 C 0.16300 1.16448 0.78903
 C38 C 0.14807 1.19305 0.80440
 C39 C 0.16131 1.20698 0.83412
 C40 C 0.18922 1.19150 0.84925
 C41 C 0.20567 1.16429 0.83393
 C42 C 0.19254 1.15119 0.80390
 H43 H 0.12579 1.20445 0.79385
 H44 H 0.19837 1.20089 0.87311
 H45 H 0.20676 1.13174 0.79123
 C46 C 0.83897 0.83685 0.79517
 C47 C 0.80969 0.85149 0.80922
 C48 C 0.79361 0.83718 0.83733
 C49 C 0.80669 0.80744 0.85134
 C50 C 0.83653 0.79256 0.83906
 C51 C 0.85257 0.80818 0.81140
 H52 H 0.79845 0.87352 0.79796
 H53 H 0.79233 0.79522 0.87100
 H54 H 0.87714 0.79936 0.80382
 C55 C 0.16496 0.83481 1.20777
 C56 C 0.15049 0.80632 1.19195
 C57 C 0.16449 0.79253 1.16247
 C58 C 0.19294 0.80795 1.14819
 C59 C 0.20888 0.83517 1.16399
 C60 C 0.19483 0.84827 1.19365
 H61 H 0.12792 0.79491 1.20195
 H62 H 0.20283 0.79859 1.12458
 H63 H 0.20857 0.86782 1.20666
 C64 C 0.83636 1.15961 1.20804
 C65 C 0.80804 1.14610 1.19119
 C66 C 0.79239 1.16325 1.16448
 C67 C 0.80598 1.19403 1.15362
 C68 C 0.83523 1.20730 1.16830
 C69 C 0.85007 1.19008 1.19548
 H70 H 0.79859 1.12143 1.19786
 H71 H 0.79327 1.20815 1.13408
 H72 H 0.87172 1.20144 1.20730
 N73 N 0.53364 1.06042 0.96010
 N74 N 0.55998 1.08030 0.95568
 N75 N 0.46224 1.03581 0.93912
 N76 N 0.43569 1.03916 0.91936
 N77 N 0.46297 1.05999 0.96164
 N78 N 0.43721 1.08059 0.95767
 N79 N 0.53340 1.03627 0.93751
 N80 N 0.55975 1.03883 0.91739
 C81 C 0.57597 1.06655 0.92886
 C82 C 0.42040 1.06730 0.93123
 N83 N 0.46423 0.94007 0.96443
 N84 N 0.43856 0.91910 0.96152
 N85 N 0.53409 0.96375 0.93907
 N86 N 0.56026 0.96014 0.91876
 N87 N 0.53518 0.94139 0.96342
 N88 N 0.56215 0.92220 0.96056
 N89 N 0.46303 0.96330 0.94091
 N90 N 0.43635 0.95900 0.92158
 Mn91 Mn 0.49813 0.99978 0.93869
 C92 C 0.42139 0.93124 0.93467
 C93 C 0.57747 0.93402 0.93248
 N94 N 0.46380 1.06156 1.03402
 N95 N 0.43782 1.08199 1.03829
 N96 N 0.53512 1.03947 1.05685
 N97 N 0.56125 1.04389 1.07684
 N98 N 0.53505 1.06203 1.03266
 N99 N 0.56136 1.08225 1.03538
 N100 N 0.46449 1.03862 1.05785
 N101 N 0.43934 1.04296 1.07910
 Mn102 Mn 0.49890 1.06145 0.99710
 C103 C 0.42285 1.07007 1.06662
 C104 C 0.57739 1.07069 1.06318
 N105 N 0.53621 0.94302 1.03580
 N106 N 0.56289 0.92349 1.03949
 N107 N 0.46500 0.96602 1.05935
 N108 N 0.43901 0.96224 1.07986
 N109 N 0.46557 0.94184 1.03683
 N110 N 0.44031 0.92077 1.04156
 N111 N 0.53621 0.96715 1.05837
 N112 N 0.56310 0.96498 1.07775
 Mn113 Mn 0.50033 0.94118 1.00011
 Mn114 Mn 0.50016 1.00280 1.05852
 Cl115 Cl 0.49937 1.00132 0.99859
 C116 C 0.57940 0.93751 1.06579
 C117 C 0.42396 0.93377 1.06847
 N118 N -0.03974 0.46248 -0.05741
 N119 N -0.04283 0.43549 -0.07655
 N120 N -0.06328 0.53331 -0.03468
 N121 N -0.08314 0.55983 -0.03751
 N122 N -0.04034 0.53337 -0.05853
 N123 N -0.04418 0.55979 -0.07840
 N124 N -0.06219 0.46211 -0.03313
 N125 N -0.08100 0.43470 -0.03492
 C126 C -0.06875 0.41846 -0.06229
 C127 C -0.07109 0.57602 -0.06503
 N128 N -0.03793 0.53627 0.05999
 N129 N -0.04153 0.56317 0.07921
 N130 N -0.06079 0.46386 0.03922
 N131 N -0.08031 0.43731 0.04383
 N132 N -0.03743 0.46534 0.06252
 N133 N -0.04059 0.43997 0.08382
 N134 N -0.06208 0.53477 0.03752
 N135 N -0.08291 0.56046 0.04097
 Mn136 Mn -0.06252 0.49843 0.00221
 C137 C -0.06979 0.57795 0.06709
 C138 C -0.06748 0.42273 0.07184
 N139 N 0.03246 0.53401 -0.05992
 N140 N 0.03639 0.55967 -0.08083
 N141 N 0.05641 0.46318 -0.03584
 N142 N 0.07692 0.43731 -0.03967
 N143 N 0.03258 0.46269 -0.05872
 N144 N 0.03599 0.43613 -0.07847
 N145 N 0.05654 0.53378 -0.03730
 N146 N 0.07764 0.55895 -0.04233
 Mn147 Mn -0.00377 0.49822 -0.05911
 C148 C 0.06479 0.57492 -0.06952
 C149 C 0.06386 0.42063 -0.06633
 N150 N 0.03511 0.46582 0.06090
 N151 N 0.03946 0.44059 0.08211
 N152 N 0.05791 0.53556 0.03501
 N153 N 0.07859 0.56146 0.03775
 N154 N 0.03454 0.53677 0.05840
 N155 N 0.03848 0.56369 0.07749
 N156 N 0.05761 0.46461 0.03667
 N157 N 0.07773 0.43841 0.04060
 Mn158 Mn -0.00141 0.50113 0.06089
 Mn159 Mn 0.05751 0.49921 -0.00036
 Cl160 Cl -0.00255 0.49926 0.00090
 C161 C 0.06616 0.42372 0.06915
 C162 C 0.06615 0.57878 0.06436
 N163 N 1.03672 0.05783 0.53392
 N164 N 1.04069 0.07815 0.55992
 N165 N 1.05876 0.03406 0.46277
 N166 N 1.07816 0.03768 0.43594
 N167 N 1.03521 0.05728 0.46327
 N168 N 1.03808 0.07748 0.43705
 N169 N 1.06006 0.03437 0.53379
 N170 N 1.08037 0.03793 0.55978
 C171 C 1.06809 0.06545 0.57578
 C172 C 1.06499 0.06499 0.42021
 N173 N 1.03641 -0.06197 0.46376
 N174 N 1.03982 -0.08195 0.43739
 N175 N 1.06085 -0.03833 0.53419
 N176 N 1.08127 -0.04184 0.56022
 N177 N 1.03748 -0.06175 0.53460
 N178 N 1.04115 -0.08163 0.56093
 N179 N 1.05944 -0.03823 0.46335
 N180 N 1.07895 -0.04119 0.43664
 Mn181 Mn 1.06022 -0.00201 0.49856
 C182 C 1.06655 -0.06864 0.42074
 C183 C 1.06864 -0.06906 0.57663
 N184 N 0.96270 0.05643 0.46461
 N185 N 0.95894 0.07555 0.43765
 N186 N 0.94116 0.03347 0.53661
 N187 N 0.92201 0.03697 0.56360
 N188 N 0.96418 0.05721 0.53548
 N189 N 0.96123 0.07758 0.56153
 N190 N 0.93928 0.03305 0.46572
 N191 N 0.91885 0.03578 0.43969
 Mn192 Mn 0.99968 0.05761 0.49930
 C193 C 0.93134 0.06247 0.42244
 C194 C 0.93477 0.06472 0.57883
 N195 N 0.96512 -0.06248 0.53618
 N196 N 0.96248 -0.08255 0.56255
 N197 N 0.93990 -0.03961 0.46610
 N198 N 0.91930 -0.04358 0.44031
 N199 N 0.96382 -0.06246 0.46543
 N200 N 0.96028 -0.08245 0.43919
 N201 N 0.94179 -0.03904 0.53704
 N202 N 0.92279 -0.04238 0.56414
 Mn203 Mn 1.00070 -0.06258 0.49995
 Mn204 Mn 0.94007 -0.00303 0.50141
 Cl205 Cl 1.00017 -0.00251 0.49981
 C206 C 0.93592 -0.06975 0.57975
 C207 C 0.93233 -0.07050 0.42381
 C208 C 1.11820 0.12374 0.29736
 C209 C 1.13958 0.10355 0.27731
 C210 C 1.15385 0.11672 0.24762
 C211 C 1.14823 0.15055 0.23773
 C212 C 1.12735 0.17042 0.25864
 C213 C 1.11254 0.15731 0.28763
 C214 C 1.10330 0.10883 0.32871
 C215 C 1.07992 0.12622 0.34899
 C216 C 1.06744 0.11167 0.37842
 C217 C 1.07802 0.07955 0.38856
 C218 C 1.10066 0.06158 0.36819
 C219 C 1.11297 0.07579 0.33814
 C220 C 1.14712 0.07049 0.28735
 C221 C 1.13455 0.05711 0.31736
 H222 H 1.16359 0.05492 0.27211
 H223 H 1.14166 0.03165 0.32428
 H224 H 1.16864 0.09990 0.23212
 H225 H 1.12343 0.19698 0.25394
 H226 H 1.04965 0.12585 0.39350
 H227 H 1.10842 0.03641 0.37552
 H228 H 1.09752 0.17432 0.30256
 H229 H 1.07073 0.15097 0.34256
 C230 C 0.87883 -0.12572 0.29968
 C231 C 0.84539 -0.11714 0.29107
 C232 C 0.83069 -0.13022 0.26168
 C233 C 0.84901 -0.15141 0.23964
 C234 C 0.88270 -0.15890 0.24830
 C235 C 0.89725 -0.14647 0.27769
 C236 C 0.89333 -0.11194 0.33167
 C237 C 0.92559 -0.12083 0.34351
 C238 C 0.93796 -0.10737 0.37344
 C239 C 0.91868 -0.08456 0.39227
 C240 C 0.88646 -0.07561 0.38089
 C241 C 0.87350 -0.08948 0.35105
 C242 C 0.82681 -0.09531 0.31172
 C243 C 0.84072 -0.08142 0.34079
 H244 H 0.80121 -0.08852 0.30510
 H245 H 0.82541 -0.06441 0.35569
 H246 H 0.80447 -0.12450 0.25702
 H247 H 0.89888 -0.17333 0.23180
 H248 H 0.96288 -0.11474 0.38177
 H249 H 0.87125 -0.05827 0.39553
 H250 H 0.92322 -0.15294 0.28228
 H251 H 0.94159 -0.13835 0.33029
 C252 C 0.88376 0.12109 0.70369
 C253 C 0.86163 0.10087 0.72293
 C254 C 0.84813 0.11313 0.75327
 C255 C 0.85552 0.14600 0.76489
 C256 C 0.87733 0.16595 0.74503
 C257 C 0.89122 0.15376 0.71517
 C258 C 0.89779 0.10703 0.67155
 C259 C 0.92128 0.12458 0.65148
 C260 C 0.93325 0.11063 0.62155
 C261 C 0.92202 0.07896 0.61072
 C262 C 0.89900 0.06100 0.63068
 C263 C 0.88711 0.07462 0.66111
 C264 C 0.85275 0.06860 0.71163
 C265 C 0.86489 0.05593 0.68121
 H266 H 0.83573 0.05304 0.72630
 H267 H 0.85687 0.03104 0.67337
 H268 H 0.83260 0.09629 0.76809
 H269 H 0.88280 0.19187 0.75138
 H270 H 0.95123 0.12485 0.60671
 H271 H 0.89059 0.03624 0.62273
 H272 H 0.90717 0.17071 0.70114
 H273 H 0.93094 0.14899 0.65843
 C274 C 1.12198 -0.12561 0.70035
 C275 C 1.15581 -0.11818 0.70849
 C276 C 1.17071 -0.13245 0.73730
 C277 C 1.15221 -0.15377 0.75913
 C278 C 1.11804 -0.15972 0.75116
 C279 C 1.10330 -0.14609 0.72240
 C280 C 1.10741 -0.11107 0.66871
 C281 C 1.07489 -0.11925 0.65711
 C282 C 1.06259 -0.10547 0.62728
 C283 C 1.08216 -0.08298 0.60833
 C284 C 1.11458 -0.07455 0.61957
 C285 C 1.12752 -0.08886 0.64927
 C286 C 1.17460 -0.09643 0.68789
 C287 C 1.16061 -0.08170 0.65922
 H288 H 1.20049 -0.09045 0.69417
 H289 H 1.17614 -0.06487 0.64430
 H290 H 1.19718 -0.12764 0.74154
 H291 H 1.10172 -0.17395 0.76772
 H292 H 1.03750 -0.11243 0.61908
 H293 H 1.13001 -0.05747 0.60482
 H294 H 1.07700 -0.15151 0.71829
 H295 H 1.05868 -0.13660 0.67035
 C296 C 0.30257 1.12616 1.12828
 C297 C 0.28213 1.14722 1.10818
 C298 C 0.25210 1.16071 1.12129
 C299 C 0.24195 1.15434 1.15485
 C300 C 0.26341 1.13425 1.17487
 C301 C 0.29298 1.12038 1.16186
 C302 C 0.33378 1.11127 1.11301
 C303 C 0.35431 1.08794 1.13015
 C304 C 0.38306 1.07471 1.11488
 C305 C 0.39232 1.08451 1.08226
 C306 C 0.37197 1.10750 1.06476
 C307 C 0.34256 1.12052 1.07969
 C308 C 0.29183 1.15482 1.07508
 C309 C 0.32162 1.14217 1.06132
 H310 H 0.27630 1.17113 1.05964
 H311 H 0.32813 1.14908 1.03573
 H312 H 0.23618 1.17513 1.10451
 H313 H 0.25851 1.13002 1.20129
 H314 H 0.39822 1.05680 1.12880
 H315 H 0.37867 1.11477 1.03930
 H316 H 0.30826 1.10568 1.17882
 H317 H 0.34847 1.07923 1.15519
 C318 C 0.30005 0.87180 0.87914
 C319 C 0.27707 0.89370 0.86292
 C320 C 0.24718 0.88085 0.84890
 C321 C 0.24037 0.84604 0.84941
 C322 C 0.26406 0.82437 0.86435
 C323 C 0.29327 0.83698 0.87921
 C324 C 0.33116 0.88654 0.89462
 C325 C 0.35374 0.86746 0.91430
 C326 C 0.38272 0.88222 0.92766
 C327 C 0.39015 0.91616 0.92137
 C328 C 0.36752 0.93562 0.90246
 C329 C 0.33780 0.92126 0.88970
 C330 C 0.28443 0.92815 0.86014
 C331 C 0.31448 0.94148 0.87258
 H332 H 0.26704 0.94496 0.84748
 H333 H 0.31933 0.96813 0.86916
 H334 H 0.22928 0.89809 0.83763
 H335 H 0.26037 0.79733 0.86413
 H336 H 0.39967 0.86686 0.94252
 H337 H 0.37275 0.96213 0.89820
 H338 H 0.31054 0.81895 0.88994
 H339 H 0.34933 0.84123 0.91996
 C340 C 0.70495 0.88600 1.11986
 C341 C 0.71066 0.85097 1.11658
 C342 C 0.73944 0.83626 1.13081
 C343 C 0.76375 0.85606 1.14728
 C344 C 0.75875 0.89107 1.14904
 C345 C 0.72971 0.90586 1.13573
 C346 C 0.67289 0.90035 1.10598
 C347 C 0.66295 0.93406 1.11119
 C348 C 0.63250 0.94600 1.09823
 C349 C 0.61153 0.92482 1.07937
 C350 C 0.62112 0.89127 1.07400
 C351 C 0.65115 0.87871 1.08777
 C352 C 0.68776 0.83078 1.09893
 C353 C 0.65900 0.84449 1.08423
 H354 H 0.69234 0.80400 1.09608
 H355 H 0.64225 0.82787 1.07053
 H356 H 0.74259 0.80916 1.12940
 H357 H 0.77743 0.90725 1.16055
 H358 H 0.62545 0.97199 1.10278
 H359 H 0.60469 0.87463 1.05990
 H360 H 0.72733 0.93287 1.13779
 H361 H 0.67800 0.95142 1.12566
 C362 C 0.70254 1.11648 0.87526
 C363 C 0.70923 1.15130 0.87910
 C364 C 0.73909 1.16521 0.86611
 C365 C 0.76340 1.14471 0.85045
 C366 C 0.75714 1.10995 0.84789
 C367 C 0.72712 1.09603 0.85987
 C368 C 0.66983 1.10284 0.88842
 C369 C 0.65929 1.06936 0.88288
 C370 C 0.62863 1.05783 0.89576
 C371 C 0.60797 1.07920 0.91480
 C372 C 0.61798 1.11264 0.92020
 C373 C 0.64833 1.12478 0.90657
 C374 C 0.68637 1.17192 0.89638
 C375 C 0.65691 1.15881 0.91041
 H376 H 0.69160 1.19854 0.89962
 H377 H 0.64032 1.17571 0.92401
 H378 H 0.74322 1.19213 0.86814
 H379 H 0.77572 1.09323 0.83695
 H380 H 0.62126 1.03195 0.89114
 H381 H 0.60178 1.12944 0.93442
 H382 H 0.72397 1.06914 0.85738
 H383 H 0.67410 1.05181 0.86836
 C384 C 0.12352 0.30282 0.12796
 C385 C 0.14112 0.28073 0.10619
 C386 C 0.15482 0.25054 0.11873
 C387 C 0.15219 0.24238 0.15307
 C388 C 0.13601 0.26520 0.17473
 C389 C 0.12174 0.29484 0.16243
 C390 C 0.10811 0.33409 0.11345
 C391 C 0.08736 0.35587 0.13234
 C392 C 0.07366 0.38477 0.11775
 C393 C 0.08055 0.39290 0.08414
 C394 C 0.10079 0.37121 0.06491
 C395 C 0.11405 0.34160 0.07912
 C396 C 0.14529 0.28914 0.07218
 C397 C 0.13258 0.31921 0.05908
 H398 H 0.15901 0.27242 0.05550
 H399 H 0.13687 0.32476 0.03271
 H400 H 0.16730 0.23329 0.10163
 H401 H 0.13461 0.26034 0.20152
 H402 H 0.05783 0.40100 0.13295
 H403 H 0.10564 0.37702 0.03867
 H404 H 0.10987 0.31135 0.18044
 H405 H 0.08103 0.35088 0.15827
 C406 C -0.11791 0.29029 -0.11263
 C407 C -0.11362 0.28419 -0.14743
 C408 C -0.12683 0.25485 -0.16202
 C409 C -0.14330 0.23040 -0.14231
 C410 C -0.14588 0.23575 -0.10744
 C411 C -0.13358 0.26532 -0.09280
 C412 C -0.10536 0.32303 -0.09851
 C413 C -0.11171 0.33334 -0.06514
 C414 C -0.10003 0.36445 -0.05348
 C415 C -0.08134 0.38574 -0.07461
 C416 C -0.07485 0.37575 -0.10780
 C417 C -0.08731 0.34505 -0.12008
 C418 C -0.09608 0.30734 -0.16754
 C419 C -0.08261 0.33677 -0.15400
 H420 H -0.09243 0.30247 -0.19413
 H421 H -0.06898 0.35371 -0.17056
 H422 H -0.12477 0.25148 -0.18900
 H423 H -0.15739 0.21702 -0.09128
 H424 H -0.10539 0.37175 -0.02776
 H425 H -0.06084 0.39236 -0.12441
 H426 H -0.13634 0.26801 -0.06593
 H427 H -0.12609 0.31804 -0.04785
 C428 C 0.12586 0.69511 -0.12632
 C429 C 0.10436 0.71827 -0.14277
 C430 C 0.11747 0.74857 -0.15573
 C431 C 0.15213 0.75578 -0.15361
 C432 C 0.17347 0.73197 -0.13846
 C433 C 0.16060 0.70221 -0.12487
 C434 C 0.11076 0.66373 -0.11161
 C435 C 0.12946 0.64094 -0.09187
 C436 C 0.11429 0.61224 -0.07843
 C437 C 0.08026 0.60520 -0.08460
 C438 C 0.06126 0.62771 -0.10410
 C439 C 0.07609 0.65726 -0.11703
 C440 C 0.07003 0.71083 -0.14656
 C441 C 0.05633 0.68071 -0.13452
 H442 H 0.05355 0.72839 -0.15944
 H443 H 0.02972 0.67599 -0.13844
 H444 H 0.10055 0.76661 -0.16730
 H445 H 0.20042 0.73606 -0.13746
 H446 H 0.12937 0.59534 -0.06321
 H447 H 0.03473 0.62274 -0.10837
 H448 H 0.17840 0.68490 -0.11385
 H449 H 0.15566 0.64505 -0.08600
 C450 C -0.12723 0.70133 0.12036
 C451 C -0.10543 0.72301 0.13835
 C452 C -0.11770 0.75342 0.15171
 C453 C -0.15191 0.76213 0.14863
 C454 C -0.17362 0.73989 0.13173
 C455 C -0.16150 0.71008 0.11762
 C456 C -0.11300 0.66953 0.10577
 C457 C -0.13183 0.64786 0.08494
 C458 C -0.11758 0.61832 0.07228
 C459 C -0.08438 0.60947 0.08030
 C460 C -0.06516 0.63109 0.10054
 C461 C -0.07902 0.66127 0.11281
 C462 C -0.07170 0.71392 0.14348
 C463 C -0.05897 0.68341 0.13156
 H464 H -0.05503 0.73036 0.15751
 H465 H -0.03292 0.67722 0.13677
 H466 H -0.10050 0.77028 0.16453
 H467 H -0.20031 0.74520 0.12984
 H468 H -0.13275 0.60217 0.05639
 H469 H -0.03921 0.62473 0.10625
 H470 H -0.17954 0.69397 0.10529
 H471 H -0.15746 0.65337 0.07781
 C472 C 1.12306 0.11930 0.69980
 C473 C 1.11506 0.15303 0.70792
 C474 C 1.12841 0.16798 0.73707
 C475 C 1.14925 0.14961 0.75937
 C476 C 1.15575 0.11551 0.75143
 C477 C 1.14311 0.10073 0.72226
 C478 C 1.10938 0.10466 0.66784
 C479 C 1.11820 0.07228 0.65619
 C480 C 1.10487 0.05981 0.62622
 C481 C 1.08224 0.07910 0.60725
 C482 C 1.07342 0.11145 0.61843
 C483 C 1.08724 0.12454 0.64821
 C484 C 1.09358 0.17166 0.68698
 C485 C 1.07954 0.15755 0.65809
 H486 H 1.08718 0.19747 0.69324
 H487 H 1.06278 0.17290 0.64296
 H488 H 1.12324 0.19440 0.74126
 H489 H 1.16966 0.09928 0.76829
 H490 H 1.11215 0.03480 0.61801
 H491 H 1.05628 0.12670 0.60362
 H492 H 1.14886 0.07449 0.71816
 H493 H 1.13563 0.05631 0.66956
 C494 C 0.88365 -0.12529 0.70449
 C495 C 0.86327 -0.10411 0.72459
 C496 C 0.84930 -0.11627 0.75482
 C497 C 0.85421 -0.15001 0.76531
 C498 C 0.87404 -0.17091 0.74437
 C499 C 0.88856 -0.15881 0.71478
 C500 C 0.89831 -0.11135 0.67258
 C501 C 0.92077 -0.12973 0.65208
 C502 C 0.93312 -0.11595 0.62219
 C503 C 0.92325 -0.08368 0.61182
 C504 C 0.90151 -0.06481 0.63235
 C505 C 0.88940 -0.07821 0.66281
 C506 C 0.85644 -0.07105 0.71411
 C507 C 0.86877 -0.05857 0.68364
 H508 H 0.84074 -0.05474 0.72938
 H509 H 0.86221 -0.03307 0.67639
 H510 H 0.83532 -0.09874 0.77028
 H511 H 0.87735 -0.19745 0.74964
 H512 H 0.95019 -0.13081 0.60694
 H513 H 0.89432 -0.03954 0.62481
 H514 H 0.90281 -0.17651 0.69989
 H515 H 0.92932 -0.15466 0.65871
 C516 C 1.12235 -0.12065 0.29617
 C517 C 1.11509 -0.15451 0.28794
 C518 C 1.12926 -0.16922 0.25901
 C519 C 1.15034 -0.15053 0.23715
 C520 C 1.15624 -0.11637 0.24522
 C521 C 1.14267 -0.10178 0.27411
 C522 C 1.10791 -0.10630 0.32795
 C523 C 1.11579 -0.07369 0.33959
 C524 C 1.10221 -0.06169 0.36965
 C525 C 1.08021 -0.08166 0.38875
 C526 C 1.07199 -0.11410 0.37742
 C527 C 1.08609 -0.12673 0.34751
 C528 C 1.09366 -0.17357 0.30861
 C529 C 1.07910 -0.15983 0.33748
 H530 H 1.08782 -0.19949 0.30225
 H531 H 1.06255 -0.17557 0.35249
 H532 H 1.12461 -0.19572 0.25471
 H533 H 1.17039 -0.09997 0.22866
 H534 H 1.10893 -0.03655 0.37791
 H535 H 1.05527 -0.12981 0.39228
 H536 H 1.14803 -0.07548 0.27834
 H537 H 1.13275 -0.05719 0.32621
 C538 C 0.87510 0.11378 0.29766
 C539 C 0.89574 0.13515 0.27801
 C540 C 0.88337 0.14925 0.24799
 C541 C 0.84988 0.14353 0.23724
 C542 C 0.82963 0.12222 0.25739
 C543 C 0.84198 0.10757 0.28682
 C544 C 0.88916 0.09942 0.32965
 C545 C 0.87118 0.07660 0.35014
 C546 C 0.88509 0.06454 0.38006
 C547 C 0.91712 0.07505 0.39049
 C548 C 0.93553 0.09729 0.37005
 C549 C 0.92199 0.10918 0.33961
 C550 C 0.92850 0.14288 0.28871
 C551 C 0.94117 0.13054 0.31903
 H552 H 0.94441 0.15928 0.27372
 H553 H 0.96645 0.13775 0.32643
 H554 H 0.90054 0.16411 0.23291
 H555 H 0.80334 0.11788 0.25176
 H556 H 0.87054 0.04713 0.39526
 H557 H 0.96058 0.10509 0.37765
 H558 H 0.82475 0.09220 0.30117
 H559 H 0.84643 0.06759 0.34352
 C560 C 0.12190 0.29890 -0.12241
 C561 C 0.09986 0.27599 -0.13851
 C562 C 0.11250 0.24576 -0.15208
 C563 C 0.14721 0.23855 -0.15109
 C564 C 0.16902 0.26229 -0.13649
 C565 C 0.15664 0.29183 -0.12217
 C566 C 0.10744 0.33022 -0.10715
 C567 C 0.12670 0.35253 -0.08741
 C568 C 0.11226 0.38162 -0.07404
 C569 C 0.07845 0.38945 -0.08029
 C570 C 0.05876 0.36715 -0.09935
 C571 C 0.07284 0.33725 -0.11216
 C572 C 0.06553 0.28376 -0.14151
 C573 C 0.05245 0.31407 -0.12928
 H574 H 0.04861 0.26644 -0.15411
 H575 H 0.02585 0.31917 -0.13279
 H576 H 0.09521 0.22788 -0.16329
 H577 H 0.19601 0.25831 -0.13650
 H578 H 0.12779 0.39829 -0.05904
 H579 H 0.03234 0.37269 -0.10355
 H580 H 0.17480 0.30908 -0.11167
 H581 H 0.15281 0.34779 -0.08160
 C582 C -0.12163 0.30022 0.13057
 C583 C -0.13736 0.27722 0.10841
 C584 C -0.15072 0.24687 0.12079
 C585 C -0.15002 0.23941 0.15539
 C586 C -0.13548 0.26293 0.17742
 C587 C -0.12130 0.29279 0.16525
 C588 C -0.10678 0.33187 0.11617
 C589 C -0.08768 0.35477 0.13544
 C590 C -0.07463 0.38405 0.12087
 C591 C -0.08072 0.39146 0.08695
 C592 C -0.09920 0.36865 0.06738
 C593 C -0.11161 0.33866 0.08152
 C594 C -0.14023 0.28487 0.07410
 C595 C -0.12823 0.31524 0.06107
 H596 H -0.15250 0.26738 0.05715
 H597 H -0.13157 0.32023 0.03446
 H598 H -0.16163 0.22898 0.10332
 H599 H -0.13547 0.25859 0.20432
 H600 H -0.06011 0.40121 0.13630
 H601 H -0.10331 0.37391 0.04092
 H602 H -0.11079 0.30996 0.18345
 H603 H -0.08222 0.35035 0.16165
 C604 C -0.12458 0.70219 -0.11647
 C605 C -0.11575 0.71116 -0.14975
 C606 C -0.12875 0.74070 -0.16430
 C607 C -0.15006 0.76267 -0.14601
 C608 C -0.15763 0.75383 -0.11240
 C609 C -0.14529 0.72421 -0.09798
 C610 C -0.11120 0.66976 -0.10234
 C611 C -0.12055 0.65731 -0.07042
 C612 C -0.10760 0.62683 -0.05853
 C613 C -0.08482 0.60811 -0.07796
 C614 C -0.07538 0.62016 -0.10979
 C615 C -0.08875 0.65047 -0.12228
 C616 C -0.09387 0.69063 -0.16839
 C617 C -0.08027 0.66123 -0.15478
 H618 H -0.08686 0.69757 -0.19384
 H619 H -0.06323 0.64642 -0.17015
 H620 H -0.12301 0.74551 -0.19049
 H621 H -0.17220 0.77025 -0.09628
 H622 H -0.11531 0.61799 -0.03389
 H623 H -0.05805 0.60563 -0.12513
 H624 H -0.15187 0.71934 -0.07209
 H625 H -0.13809 0.67047 -0.05438
 C626 C 0.12486 0.70114 0.11818
 C627 C 0.10284 0.72438 0.13388
 C628 C 0.11559 0.75451 0.14746
 C629 C 0.15039 0.76128 0.14705
 C630 C 0.17216 0.73737 0.13261
 C631 C 0.15967 0.70792 0.11817
 C632 C 0.11027 0.66973 0.10320
 C633 C 0.12952 0.64688 0.08400
 C634 C 0.11492 0.61763 0.07110
 C635 C 0.08098 0.61023 0.07736
 C636 C 0.06134 0.63311 0.09578
 C637 C 0.07555 0.66311 0.10808
 C638 C 0.06840 0.71703 0.13661
 C639 C 0.05519 0.68672 0.12465
 H640 H 0.05150 0.73464 0.14887
 H641 H 0.02853 0.68190 0.12801
 H642 H 0.09830 0.77260 0.15838
 H643 H 0.19920 0.74107 0.13295
 H644 H 0.13040 0.60047 0.05658
 H645 H 0.03483 0.62787 0.09998
 H646 H 0.17777 0.69047 0.10787
 H647 H 0.15574 0.65126 0.07835
 C648 C 0.29817 1.12552 0.87651
 C649 C 0.27574 1.10362 0.85958
 C650 C 0.24536 1.11614 0.84640
 C651 C 0.23744 1.15064 0.84859
 C652 C 0.26054 1.17239 0.86423
 C653 C 0.29030 1.16008 0.87816
 C654 C 0.32976 1.11107 0.89121
 C655 C 0.35186 1.13007 0.91140
 C656 C 0.38109 1.11560 0.92437
 C657 C 0.38926 1.08199 0.91731
 C658 C 0.36726 1.06260 0.89765
 C659 C 0.33728 1.07671 0.88514
 C660 C 0.28409 1.06955 0.85536
 C661 C 0.31452 1.05656 0.86725
 H662 H 0.26712 1.05279 0.84211
 H663 H 0.32008 1.03021 0.86280
 H664 H 0.22790 1.09891 0.83444
 H665 H 0.25593 1.19927 0.86528
 H666 H 0.39754 1.13093 0.93980
 H667 H 0.37309 1.03635 0.89274
 H668 H 0.30707 1.17818 0.88950
 H669 H 0.34687 1.15599 0.91787
 C670 C 0.30226 0.87436 1.12351
 C671 C 0.27915 0.89623 1.13958
 C672 C 0.24855 0.88354 1.15221
 C673 C 0.24100 0.84895 1.15016
 C674 C 0.26474 0.82724 1.13540
 C675 C 0.29479 0.83969 1.12211
 C676 C 0.33400 0.88900 1.10919
 C677 C 0.35683 0.86995 1.08981
 C678 C 0.38592 0.88470 1.07677
 C679 C 0.39328 0.91866 1.08302
 C680 C 0.37072 0.93802 1.10211
 C681 C 0.34082 0.92362 1.11462
 C682 C 0.28693 0.93049 1.14337
 C683 C 0.31738 0.94375 1.13171
 H684 H 0.26940 0.94723 1.15595
 H685 H 0.32238 0.97033 1.13562
 H686 H 0.23057 0.90071 1.16352
 H687 H 0.26035 0.80032 1.13449
 H688 H 0.40287 0.86938 1.06184
 H689 H 0.37596 0.96450 1.10641
 H690 H 0.31203 0.82163 1.11140
 H691 H 0.35247 0.84378 1.08392
 C692 C 0.70210 1.12429 1.11740
 C693 C 0.70827 1.11858 1.15200
 C694 C 0.73744 1.13156 1.16717
 C695 C 0.76157 1.14927 1.14817
 C696 C 0.75595 1.15367 1.11354
 C697 C 0.72662 1.14157 1.09837
 C698 C 0.66995 1.11117 1.10251
 C699 C 0.65986 1.11817 1.06920
 C700 C 0.62961 1.10534 1.05658
 C701 C 0.60895 1.08492 1.07668
 C702 C 0.61856 1.07804 1.10991
 C703 C 0.64845 1.09149 1.12312
 C704 C 0.68548 1.09965 1.17123
 C705 C 0.65655 1.08587 1.15695
 H706 H 0.69033 1.09501 1.19767
 H707 H 0.63995 1.07103 1.17280
 H708 H 0.74111 1.12808 1.19397
 H709 H 0.77445 1.16628 1.09792
 H710 H 0.62257 1.11108 1.03088
 H711 H 0.60241 1.06269 1.12576
 H712 H 0.72386 1.14562 1.07168
 H713 H 0.67474 1.13378 1.05263
 C714 C 0.70356 0.88049 0.88120
 C715 C 0.70919 0.88274 0.84611
 C716 C 0.73831 0.86843 0.83182
 C717 C 0.76278 0.85286 0.85217
 C718 C 0.75774 0.85231 0.88717
 C719 C 0.72857 0.86570 0.90149
 C720 C 0.67133 0.89434 0.89526
 C721 C 0.66169 0.88990 0.92912
 C722 C 0.63118 0.90277 0.94093
 C723 C 0.60971 0.92079 0.91950
 C724 C 0.61896 0.92540 0.88573
 C725 C 0.64918 0.91164 0.87331
 C726 C 0.68589 0.89950 0.82557
 C727 C 0.65690 0.91424 0.83898
 H728 H 0.69033 0.90160 0.79873
 H729 H 0.63986 0.92722 0.82207
 H730 H 0.74159 0.86910 0.80476
 H731 H 0.77659 0.84161 0.90372
 H732 H 0.62445 0.89878 0.96707
 H733 H 0.60216 0.93881 0.86890
 H734 H 0.72633 0.86456 0.92852
 H735 H 0.67700 0.87606 0.94676
   
