data_POSCAR
  _audit_creation_date              2014-09-24
  _audit_creation_method            'ToBaCCo'
  _symmetry_space_group_name_H-M    'P1'
  _symmetry_Int_Tables_number       1
  _symmetry_cell_setting            triclinic
  loop_
  _symmetry_equiv_pos_as_xyz
 x,y,z
_cell_length_a 13.0035
_cell_length_b 13.0105
_cell_length_c 12.9894
_cell_angle_alpha 89.813800
_cell_angle_beta 89.508100
_cell_angle_gamma 89.703800
loop_
  _atom_site_label
  _atom_site_type_symbol
  _atom_site_fract_x
  _atom_site_fract_y
  _atom_site_fract_z
C1 C 0.19588 0.09169 0.54412
 C2 C 0.19904 0.08800 0.43918
 C3 C 0.28542 0.03092 0.41181
 N4 N 0.33795 0.00386 0.49754
 C5 C 0.28163 0.03883 0.57855
 C6 C 0.31250 -0.00012 0.31004
 C7 C 0.41544 -0.02950 0.28623
 C8 C 0.44574 -0.08928 0.20288
 C9 C 0.55098 -0.09272 0.20285
 C10 C 0.58311 -0.03592 0.28665
 N11 N 0.49994 0.00018 0.33896
 C12 C 0.68743 -0.02386 0.31523
 C13 C 0.71482 -0.03688 0.41952
 C14 C 0.80095 -0.09002 0.45301
 C15 C 0.79668 -0.09000 0.55806
 C16 C 0.70915 -0.03539 0.58599
 N17 N 0.65726 -0.00567 0.50091
 C18 C 0.68238 -0.00518 0.68738
 C19 C 0.58125 0.02840 0.71115
 C20 C 0.55339 0.08791 0.79534
 C21 C 0.44824 0.09483 0.79546
 C22 C 0.41413 0.03981 0.71122
 N23 N 0.49590 0.00165 0.65849
 C24 C 0.30953 0.02967 0.68333
 H25 H 0.14064 0.13509 0.58912
 H26 H 0.14594 0.12752 0.38941
 H27 H 0.49304 -0.04836 0.59601
 H28 H 0.39769 -0.12999 0.14941
 H29 H 0.59795 -0.13734 0.15031
 H30 H 0.85756 -0.13081 0.40720
 H31 H 0.85034 -0.12922 0.60744
 H32 H 0.40279 0.14008 0.84867
 H33 H 0.50128 0.05004 0.40164
 H34 H 0.60299 0.12568 0.84961
 C35 C 0.54522 0.19725 0.09145
 C36 C 0.44036 0.20087 0.08745
 C37 C 0.41455 0.28829 0.03200
 N38 N 0.50069 0.34053 0.00556
 C39 C 0.58075 0.28354 0.03980
 C40 C 0.31427 0.31547 -0.00068
 C41 C 0.29140 0.41703 -0.03193
 C42 C 0.20739 0.44665 -0.09024
 C43 C 0.20694 0.55189 -0.09282
 C44 C 0.29118 0.58387 -0.03691
 N45 N 0.34388 0.50130 -0.00205
 C46 C 0.31956 0.68731 -0.02323
 C47 C 0.42339 0.71572 -0.03528
 C48 C 0.45607 0.80160 -0.08907
 C49 C 0.56093 0.79808 -0.08964
 C50 C 0.58968 0.71176 -0.03363
 N51 N 0.50494 0.65930 -0.00343
 C52 C 0.69171 0.68542 -0.00491
 C53 C 0.71562 0.58327 0.02676
 C54 C 0.79860 0.55484 0.08732
 C55 C 0.79784 0.44983 0.09440
 C56 C 0.71406 0.41587 0.03898
 N57 N 0.66252 0.49789 0.00006
 C58 C 0.68545 0.31108 0.02998
 H59 H 0.58935 0.14095 0.13383
 H60 H 0.38966 0.14700 0.12503
 H61 H 0.60006 0.49517 -0.04968
 H62 H 0.15319 0.39821 -0.12950
 H63 H 0.15357 0.59886 -0.13586
 H64 H 0.40991 0.85695 -0.13061
 H65 H 0.60964 0.85100 -0.13091
 H66 H 0.84983 0.40435 0.14050
 H67 H 0.40599 0.50295 0.04818
 H68 H 0.85217 0.60403 0.12653
 C69 C 0.08907 0.54387 0.19786
 C70 C 0.08606 0.43912 0.20049
 C71 C 0.02996 0.41158 0.28760
 N72 N 0.00307 0.49691 0.34115
 C73 C 0.03715 0.57773 0.28478
 C74 C -0.00081 0.31017 0.31450
 C75 C -0.02965 0.28683 0.41768
 C76 C -0.08996 0.20431 0.44826
 C77 C -0.09283 0.20468 0.55361
 C78 C -0.03496 0.28777 0.58547
 N79 N 0.00103 0.33942 0.50209
 C80 C -0.02160 0.31616 0.68980
 C81 C -0.03350 0.42057 0.71804
 C82 C -0.08788 0.45377 0.80390
 C83 C -0.08817 0.55856 0.80040
 C84 C -0.03201 0.58718 0.71384
 N85 N -0.00155 0.50218 0.66134
 C86 C -0.00441 0.68963 0.68684
 C87 C 0.02694 0.71308 0.58459
 C88 C 0.08658 0.79660 0.55518
 C89 C 0.09268 0.79542 0.45000
 C90 C 0.03789 0.71074 0.41740
 N91 N 0.00010 0.65913 0.49990
 C92 C 0.02771 0.68182 0.31334
 H93 H 0.13162 0.58899 0.14216
 H94 H 0.12535 0.38969 0.14648
 H95 H -0.04923 0.59621 0.49792
 H96 H -0.13136 0.15117 0.40036
 H97 H -0.13774 0.15286 0.60086
 H98 H -0.13000 0.40789 0.85931
 H99 H -0.12963 0.60732 0.85334
 H100 H 0.13771 0.84780 0.40354
 H101 H 0.05143 0.40153 0.50323
 H102 H 0.12559 0.85093 0.60375
 O103 O -0.14136 1.00250 -0.26223
 O104 O -0.13916 0.99208 0.26598
 O105 O -0.26161 0.85827 0.00006
 O106 O -0.26537 1.13772 0.01465
 O107 O -0.14218 1.26328 0.01364
 O108 O -0.13513 0.73494 -0.00347
 O109 O -0.26439 0.99199 0.14274
 O110 O -0.26507 0.99456 -0.13528
 Zr111 Zr -0.18086 0.99818 0.00343
 O112 O -0.09457 1.09137 0.09654
 O113 O -0.09290 0.90756 -0.09294
 C114 C -0.23621 0.99691 -0.23131
 C115 C -0.23487 0.98670 0.23776
 C116 C -0.23119 0.76314 -0.00319
 C117 C -0.23704 1.23341 0.02072
 H118 H -0.13131 0.85798 0.13712
 O119 O -0.09018 0.90474 0.09325
 H120 H -0.14243 1.13744 -0.13036
 O121 O -0.09587 1.09342 -0.08943
 O122 O 0.14005 0.99562 0.26235
 O123 O 0.13659 1.01453 -0.26647
 O124 O 0.01405 0.73526 0.13639
 O125 O -0.00539 1.26219 0.14183
 O126 O -0.00725 1.26634 -0.13698
 O127 O -0.00007 0.73790 -0.14097
 O128 O 0.26598 0.86374 -0.00905
 O129 O 0.26220 1.14026 -0.00754
 O130 O 0.14294 0.73792 -0.00826
 O131 O 0.13642 1.26451 0.00026
 O132 O 0.01181 0.85824 0.26273
 O133 O -0.00443 0.86373 -0.26487
 O134 O -0.00730 1.14340 -0.26311
 O135 O -0.00314 1.13651 0.26587
 O136 O 0.26430 0.99843 0.13600
 O137 O 0.26221 1.01308 -0.14363
 Zr138 Zr 0.00076 0.99776 0.18090
 Zr139 Zr -0.00222 1.00352 -0.18089
 Zr140 Zr 0.00307 0.82013 -0.00227
 Zr141 Zr -0.00294 1.18078 0.00209
 Zr142 Zr 0.18015 1.00193 -0.00329
 O143 O 0.09072 1.09635 -0.09413
 O144 O 0.09562 0.90666 0.09091
 C145 C 0.23544 0.99721 0.23226
 C146 C 0.23221 1.02036 -0.23852
 C147 C 0.01920 0.76371 0.23200
 C148 C -0.00394 1.23244 0.23722
 C149 C -0.01216 1.23839 -0.23295
 C150 C -0.00357 0.76767 -0.23615
 C151 C 0.23766 0.76832 -0.01352
 C152 C 0.23212 1.23512 -0.00355
 H153 H 0.13690 0.86952 -0.14334
 O154 O 0.09296 0.91064 -0.09641
 H155 H 0.13516 1.13569 0.13586
 O156 O 0.09151 1.09217 0.09212
   
