data_POSCAR
  _audit_creation_date              2014-09-24
  _audit_creation_method            'ToBaCCo'
  _symmetry_space_group_name_H-M    'P1'
  _symmetry_Int_Tables_number       1
  _symmetry_cell_setting            triclinic
  loop_
  _symmetry_equiv_pos_as_xyz
 x,y,z
_cell_length_a 29.5237
_cell_length_b 30.0931
_cell_length_c 16.6326
_cell_angle_alpha 89.655300
_cell_angle_beta 90.166500
_cell_angle_gamma 117.155800
loop_
  _atom_site_label
  _atom_site_type_symbol
  _atom_site_fract_x
  _atom_site_fract_y
  _atom_site_fract_z
C1 C 0.37321 0.86266 0.45735
 C2 C 0.37208 0.86168 0.53969
 C3 C 0.41876 0.89861 0.56465
 N4 N 0.44863 0.92161 0.50095
 C5 C 0.42149 0.89830 0.43503
 C6 C 0.43275 0.91171 0.64524
 C7 C 0.45440 0.96276 0.66558
 C8 C 0.43878 0.98152 0.72961
 C9 C 0.46834 1.03225 0.72826
 C10 C 0.50316 1.04296 0.66608
 N11 N 0.49274 1.00043 0.62558
 C12 C 0.54492 1.09048 0.64998
 C13 C 0.55818 1.10573 0.56823
 C14 C 0.59153 1.15361 0.54246
 C15 C 0.59091 1.15318 0.46060
 C16 C 0.55560 1.10580 0.43728
 N17 N 0.53624 1.07656 0.50326
 C18 C 0.54318 1.09011 0.35617
 C19 C 0.52383 1.03889 0.33561
 C20 C 0.53434 1.02208 0.26426
 C21 C 0.50516 0.97154 0.26262
 C22 C 0.47901 0.95747 0.33519
 N23 N 0.49089 0.99926 0.37956
 C24 C 0.44193 0.90799 0.35635
 H25 H 0.34131 0.84062 0.41882
 H26 H 0.33980 0.83828 0.57677
 H27 H 0.47333 1.00139 0.43262
 H28 H 0.40828 0.96108 0.77155
 H29 H 0.46438 1.05823 0.76881
 H30 H 0.61340 1.18672 0.57732
 H31 H 0.61520 1.18459 0.42345
 H32 H 0.50321 0.94928 0.21105
 H33 H 0.51409 0.99647 0.57882
 H34 H 0.56002 1.04383 0.21685
 C35 C -0.15418 0.38552 0.46147
 C36 C -0.15482 0.38699 0.54350
 C37 C -0.10755 0.42379 0.56746
 N38 N -0.07738 0.44314 0.50217
 C39 C -0.10637 0.42112 0.43692
 C40 C -0.09218 0.43785 0.64847
 C41 C -0.03965 0.45928 0.66845
 C42 C -0.02027 0.45076 0.73965
 C43 C 0.03079 0.48263 0.74032
 C44 C 0.04211 0.50887 0.66804
 N45 N -0.00120 0.49382 0.62421
 C46 C 0.08968 0.54947 0.64659
 C47 C 0.09674 0.56706 0.56677
 C48 C 0.12059 0.61633 0.54135
 C49 C 0.12087 0.61530 0.45861
 C50 C 0.09747 0.56541 0.43703
 N51 N 0.08135 0.53609 0.50308
 C52 C 0.09172 0.54569 0.35893
 C53 C 0.04477 0.50372 0.33901
 C54 C 0.03483 0.47471 0.27029
 C55 C -0.01625 0.44232 0.27059
 C56 C -0.03695 0.45330 0.33766
 N57 N 0.00068 0.48974 0.38026
 C58 C -0.08980 0.43200 0.35557
 H59 H -0.18511 0.35952 0.42478
 H60 H -0.18615 0.36196 0.58076
 H61 H -0.00438 0.50848 0.42917
 H62 H -0.04095 0.42512 0.78763
 H63 H 0.05541 0.48652 0.79064
 H64 H 0.13477 0.64944 0.57834
 H65 H 0.13518 0.64751 0.41907
 H66 H -0.03610 0.41454 0.22516
 H67 H -0.00524 0.51082 0.57178
 H68 H 0.06050 0.47693 0.22266
 C69 C 0.61732 0.46591 0.46218
 C70 C 0.62076 0.47000 0.54419
 C71 C 0.57546 0.46827 0.57130
 N72 N 0.54424 0.46148 0.50777
 C73 C 0.56901 0.45841 0.44148
 C74 C 0.55940 0.46800 0.65210
 C75 C 0.51698 0.47775 0.66314
 C76 C 0.47885 0.45637 0.72005
 C77 C 0.45089 0.48235 0.71765
 C78 C 0.47045 0.51722 0.65556
 N79 N 0.51017 0.51314 0.62179
 C80 C 0.45686 0.55589 0.63552
 C81 C 0.46996 0.57715 0.55734
 C82 C 0.48251 0.62556 0.53359
 C83 C 0.48497 0.62668 0.45113
 C84 C 0.47748 0.57975 0.42696
 N85 N 0.46872 0.54993 0.49230
 C86 C 0.47380 0.56160 0.34737
 C87 C 0.47761 0.51667 0.33769
 C88 C 0.45158 0.47922 0.28285
 C89 C 0.47307 0.44726 0.28552
 C90 C 0.50995 0.46434 0.34551
 N91 N 0.51134 0.50611 0.37810
 C92 C 0.54592 0.44659 0.36457
 H93 H 0.64798 0.46958 0.42301
 H94 H 0.65409 0.47467 0.57676
 H95 H 0.53820 0.52976 0.41926
 H96 H 0.47186 0.42557 0.76034
 H97 H 0.42027 0.47540 0.75875
 H98 H 0.49045 0.65751 0.57106
 H99 H 0.49244 0.65929 0.41570
 H100 H 0.46141 0.41552 0.24671
 H101 H 0.53523 0.53721 0.57878
 H102 H 0.42043 0.47509 0.24413
 O103 O 0.41054 0.66534 -0.07989
 O104 O 0.39878 0.74523 -0.10185
 C105 C 0.37138 0.76709 -0.11257
 O106 O 0.33354 0.75930 -0.06816
 O107 O 0.25430 0.67295 -0.08863
 C108 C 0.23536 0.62664 -0.10373
 O109 O 0.24588 0.59652 -0.06314
 O110 O 0.33373 0.60042 -0.09363
 C111 C 0.37983 0.62509 -0.11427
 O112 O 0.41395 0.68076 0.08059
 O113 O 0.40590 0.76231 0.05810
 C114 C 0.37360 0.76697 0.10320
 O115 O 0.32589 0.74316 0.09213
 O116 O 0.24292 0.65963 0.07205
 C117 C 0.23983 0.62206 0.11147
 O118 O 0.26711 0.60078 0.09588
 O119 O 0.35415 0.60206 0.06469
 C120 C 0.39364 0.63490 0.09936
 Cr121 Cr 0.40449 0.71194 -0.01052
 Cr122 Cr 0.29074 0.70748 0.00173
 Cr123 Cr 0.30140 0.60274 0.00091
 O124 O 0.33227 0.67398 -0.00265
 O125 O 0.59924 0.33128 -0.09787
 O126 O 0.59419 0.24322 -0.07103
 C127 C 0.62639 0.23462 -0.10946
 O128 O 0.67342 0.25593 -0.09333
 O129 O 0.75803 0.33513 -0.06408
 C130 C 0.76513 0.37445 -0.10276
 O131 O 0.74268 0.40052 -0.08574
 O132 O 0.65819 0.40665 -0.06052
 C133 C 0.62253 0.37833 -0.10691
 O134 O 0.59138 0.34293 0.06151
 O135 O 0.59239 0.25779 0.08725
 C136 C 0.61665 0.23344 0.10476
 O137 O 0.65603 0.23821 0.06659
 O138 O 0.74016 0.31877 0.09526
 C139 C 0.76409 0.36485 0.11124
 O140 O 0.75679 0.39777 0.07346
 O141 O 0.66962 0.39781 0.09869
 C142 C 0.62175 0.37653 0.10846
 Cr143 Cr 0.59701 0.29506 -0.00497
 Cr144 Cr 0.70553 0.28842 0.00114
 Cr145 Cr 0.70547 0.39808 0.00627
 O146 O 0.66948 0.32708 0.00090
 C147 C 0.41557 0.87359 -0.29212
 C148 C 0.36254 0.86024 -0.25775
 C149 C 0.34726 0.82494 -0.19843
 C150 C 0.38624 0.80566 -0.17855
 C151 C 0.39661 0.78755 -0.25921
 C152 C 0.41256 0.82299 -0.31812
 C153 C 0.45124 0.88777 -0.21819
 C154 C 0.43562 0.85259 -0.15905
 H155 H 0.33877 0.87676 -0.27892
 H156 H 0.31045 0.81152 -0.16937
 H157 H 0.39303 0.75042 -0.26869
 H158 H 0.42317 0.81576 -0.37722
 H159 H 0.48656 0.92212 -0.21329
 H160 H 0.45720 0.85729 -0.10402
 C161 C 0.13207 0.57245 -0.28977
 C162 C 0.14703 0.53376 -0.25338
 C163 C 0.18042 0.55101 -0.19113
 C164 C 0.19789 0.60640 -0.17190
 C165 C 0.21841 0.63336 -0.25241
 C166 C 0.18443 0.61542 -0.31430
 C167 C 0.11490 0.59336 -0.21825
 C168 C 0.14892 0.61067 -0.15694
 H169 H 0.13393 0.49632 -0.27692
 H170 H 0.19502 0.52790 -0.16168
 H171 H 0.25772 0.66096 -0.26160
 H172 H 0.19699 0.62677 -0.37542
 H173 H 0.07882 0.59476 -0.21644
 H174 H 0.14179 0.62655 -0.10287
 C175 C 0.43429 0.57458 -0.30301
 C176 C 0.41840 0.61568 -0.32562
 C177 C 0.40156 0.63283 -0.26250
 C178 C 0.39916 0.60600 -0.18291
 C179 C 0.36665 0.55029 -0.20262
 C180 C 0.38429 0.53438 -0.26630
 C181 C 0.47128 0.59632 -0.23167
 C182 C 0.45296 0.61211 -0.16941
 H183 H 0.40976 0.62316 -0.38597
 H184 H 0.38396 0.65728 -0.27112
 H185 H 0.33072 0.52637 -0.17360
 H186 H 0.36205 0.49779 -0.29261
 H187 H 0.50923 0.59901 -0.23028
 H188 H 0.47506 0.62778 -0.11530
 C189 C 0.56791 0.12679 -0.28501
 C190 C 0.62662 0.15749 -0.28828
 C191 C 0.64669 0.19425 -0.23191
 C192 C 0.60667 0.19584 -0.17446
 C193 C 0.56773 0.20141 -0.22913
 C194 C 0.54737 0.16549 -0.28580
 C195 C 0.56032 0.10659 -0.19742
 C196 C 0.57925 0.14267 -0.14020
 H197 H 0.65064 0.14942 -0.32885
 H198 H 0.68738 0.21781 -0.22610
 H199 H 0.55698 0.23130 -0.22377
 H200 H 0.51907 0.16480 -0.32832
 H201 H 0.54754 0.06773 -0.18127
 H202 H 0.57981 0.13385 -0.07690
 C203 C 0.87006 0.42261 -0.28698
 C204 C 0.81918 0.42335 -0.30751
 C205 C 0.78396 0.40605 -0.24739
 C206 C 0.80314 0.39170 -0.17038
 C207 C 0.82047 0.35308 -0.19745
 C208 C 0.85510 0.36916 -0.25788
 C209 C 0.88667 0.45533 -0.21027
 C210 C 0.85218 0.43853 -0.14930
 H211 H 0.81237 0.43899 -0.36249
 H212 H 0.74717 0.40580 -0.25244
 H213 H 0.80630 0.31580 -0.17214
 H214 H 0.87038 0.34566 -0.28336
 H215 H 0.92093 0.49069 -0.20595
 H216 H 0.85790 0.45871 -0.09323
 C217 C 0.57756 0.44717 -0.28271
 C218 C 0.55541 0.39017 -0.29231
 C219 C 0.57012 0.36715 -0.23515
 C220 C 0.60607 0.40273 -0.17207
 C221 C 0.65051 0.44270 -0.22032
 C222 C 0.63576 0.46696 -0.27605
 C223 C 0.56447 0.45502 -0.19537
 C224 C 0.57819 0.43083 -0.13832
 H225 H 0.52999 0.36944 -0.34087
 H226 H 0.55744 0.32714 -0.23556
 H227 H 0.69024 0.45546 -0.20468
 H228 H 0.66327 0.50218 -0.30174
 H229 H 0.55217 0.48250 -0.17798
 H230 H 0.57462 0.43590 -0.07447
 C231 C 0.87260 0.41542 0.29050
 C232 C 0.82468 0.42245 0.30725
 C233 C 0.78847 0.40432 0.24883
 C234 C 0.80355 0.38231 0.17689
 C235 C 0.85485 0.42444 0.14918
 C236 C 0.89043 0.44255 0.20848
 C237 C 0.85246 0.35959 0.27156
 C238 C 0.81647 0.34231 0.21286
 H239 H 0.82054 0.44228 0.35877
 H240 H 0.75348 0.40780 0.25168
 H241 H 0.86144 0.44120 0.08961
 H242 H 0.92613 0.47591 0.19889
 H243 H 0.86567 0.33561 0.30190
 H244 H 0.79921 0.30366 0.19353
 C245 C 0.56110 0.12953 0.28783
 C246 C 0.61680 0.14516 0.26537
 C247 C 0.63530 0.17950 0.20543
 C248 C 0.59666 0.19585 0.17207
 C249 C 0.55027 0.14743 0.14736
 C250 C 0.53101 0.11325 0.20795
 C251 C 0.55865 0.17882 0.30530
 C252 C 0.57843 0.21383 0.24584
 H253 H 0.63997 0.13047 0.29506
 H254 H 0.67432 0.19413 0.18462
 H255 H 0.53203 0.14185 0.08893
 H256 H 0.49549 0.07936 0.20100
 H257 H 0.54018 0.18470 0.35760
 H258 H 0.57799 0.24967 0.24894
 C259 C 0.56522 0.42368 0.29803
 C260 C 0.52381 0.38033 0.25036
 C261 C 0.54172 0.36500 0.18627
 C262 C 0.60011 0.39283 0.17736
 C263 C 0.61335 0.44811 0.17263
 C264 C 0.59542 0.46409 0.23512
 C265 C 0.60065 0.40055 0.32250
 C266 C 0.61974 0.38571 0.25943
 H267 H 0.48528 0.35817 0.27210
 H268 H 0.51730 0.33203 0.15212
 H269 H 0.63508 0.47276 0.12395
 H270 H 0.60216 0.50261 0.23961
 H271 H 0.60344 0.38825 0.38286
 H272 H 0.64102 0.36463 0.26795
 C273 C 0.13459 0.56820 0.29559
 C274 C 0.15233 0.53040 0.26504
 C275 C 0.18647 0.54754 0.20351
 C276 C 0.20153 0.60187 0.17885
 C277 C 0.15102 0.60253 0.15951
 C278 C 0.11659 0.58558 0.22026
 C279 C 0.18569 0.61350 0.31858
 C280 C 0.22002 0.63137 0.25717
 H281 H 0.14033 0.49370 0.29165
 H282 H 0.20266 0.52502 0.17730
 H283 H 0.14301 0.61560 0.10281
 H284 H 0.07947 0.58460 0.21524
 H285 H 0.19787 0.62617 0.37921
 H286 H 0.25873 0.66030 0.26613
 C287 C 0.42317 0.86652 0.29153
 C288 C 0.39409 0.87854 0.22492
 C289 C 0.37850 0.84592 0.16290
 C290 C 0.39261 0.80320 0.17191
 C291 C 0.45066 0.82861 0.18496
 C292 C 0.46628 0.86049 0.24849
 C293 C 0.38766 0.81168 0.31631
 C294 C 0.37097 0.77909 0.25365
 H295 H 0.38627 0.91045 0.22673
 H296 H 0.35768 0.85011 0.11191
 H297 H 0.47688 0.81961 0.15148
 H298 H 0.50545 0.87758 0.26933
 H299 H 0.38357 0.79717 0.37703
 H300 H 0.35030 0.73898 0.26289
 C301 C 0.45566 0.58368 0.27749
 C302 C 0.39938 0.57086 0.28945
 C303 C 0.37960 0.58856 0.23126
 C304 C 0.41738 0.61770 0.16477
 C305 C 0.46326 0.65884 0.20882
 C306 C 0.48383 0.64090 0.26640
 C307 C 0.45884 0.56576 0.19151
 C308 C 0.43779 0.58251 0.13344
 H309 H 0.37684 0.54955 0.34039
 H310 H 0.34041 0.58250 0.23269
 H311 H 0.48148 0.69784 0.19064
 H312 H 0.52075 0.66454 0.29254
 H313 H 0.48210 0.54789 0.17503
 H314 H 0.44097 0.57616 0.06996
   
