data_POSCAR
  _audit_creation_date              2014-09-24
  _audit_creation_method            'ToBaCCo'
  _symmetry_space_group_name_H-M    'P1'
  _symmetry_Int_Tables_number       1
  _symmetry_cell_setting            triclinic
  loop_
  _symmetry_equiv_pos_as_xyz
 x,y,z
_cell_length_a 21.0711
_cell_length_b 21.5263
_cell_length_c 20.8877
_cell_angle_alpha 89.151200
_cell_angle_beta 89.478300
_cell_angle_gamma 89.035000
loop_
  _atom_site_label
  _atom_site_type_symbol
  _atom_site_fract_x
  _atom_site_fract_y
  _atom_site_fract_z
C1 C 0.37133 1.00420 -0.56003
 C2 C 0.34166 1.01808 -0.50143
 C3 C 0.37500 1.01771 -0.44371
 C4 C 0.44102 1.00396 -0.44411
 C5 C 0.47173 0.98794 -0.50238
 C6 C 0.43637 0.98590 -0.55992
 C7 C 0.46549 0.95993 -0.61434
 C8 C 0.52930 0.94397 -0.61481
 C9 C 0.56718 0.95319 -0.56095
 C10 C 0.53762 0.97196 -0.50295
 C11 C 0.47697 1.00476 -0.38781
 C12 C 0.54099 0.98778 -0.38811
 C13 C 0.57317 0.97295 -0.44541
 C14 C 0.63855 0.95469 -0.44654
 C15 C 0.66628 0.93691 -0.50500
 C16 C 0.63293 0.93901 -0.56264
 H17 H 0.43895 0.94959 -0.65679
 H18 H 0.54839 0.92273 -0.65766
 H19 H 0.45591 1.01781 -0.34248
 H20 H 0.56424 0.98508 -0.34228
 H21 H 0.29160 1.03063 -0.50058
 H22 H 0.71710 0.92802 -0.50669
 C23 C -0.43443 1.63071 -0.00428
 C24 C -0.48923 1.66803 -0.00104
 C25 C -0.55040 1.64331 0.00511
 C26 C -0.55650 1.57726 0.00635
 C27 C -0.50107 1.53853 0.00212
 C28 C -0.43999 1.56543 -0.00093
 C29 C -0.38600 1.52649 0.00298
 C30 C -0.39140 1.46232 0.00668
 C31 C -0.45096 1.43401 0.00454
 C32 C -0.50648 1.47254 0.00388
 C33 C -0.61522 1.54843 0.01750
 C34 C -0.62074 1.48416 0.01645
 C35 C -0.56733 1.44532 0.00766
 C36 C -0.57276 1.37980 0.00642
 C37 C -0.51750 1.34275 0.00546
 C38 C -0.45684 1.36839 0.00615
 H39 H -0.33880 1.54528 0.00508
 H40 H -0.34797 1.43551 0.01206
 H41 H -0.65774 1.57471 0.02896
 H42 H -0.66732 1.46517 0.02498
 H43 H -0.48390 1.71797 -0.00535
 H44 H -0.52175 1.29262 0.00458
 C45 C 0.00405 0.37370 0.43830
 C46 C 0.01223 0.34038 0.49638
 C47 C 0.02604 0.37020 0.55370
 C48 C 0.02928 0.43586 0.55438
 C49 C 0.01432 0.47080 0.49826
 C50 C 0.00072 0.43986 0.44046
 C51 C -0.02138 0.47573 0.38806
 C52 C -0.02405 0.54023 0.39008
 C53 C -0.00563 0.57199 0.44494
 C54 C 0.01082 0.53694 0.50059
 C55 C 0.04364 0.46771 0.61062
 C56 C 0.04215 0.53203 0.61221
 C57 C 0.02230 0.56771 0.55899
 C58 C 0.01645 0.63350 0.56189
 C59 C 0.00627 0.66710 0.50465
 C60 C -0.00572 0.63777 0.44666
 H61 H -0.03892 0.45427 0.34537
 H62 H -0.04236 0.56473 0.34846
 H63 H 0.05570 0.44355 0.65464
 H64 H 0.05683 0.55340 0.65607
 H65 H 0.01329 0.28999 0.49661
 H66 H 0.00337 0.71739 0.50566
 O67 O -0.15846 1.01732 -0.10070
 O68 O 0.16713 1.00476 -0.07501
 O69 O 0.00595 1.09988 -0.16092
 O70 O 0.01635 0.93486 -0.17064
 O71 O 0.00657 0.85207 -0.10019
 O72 O -0.00008 1.17163 -0.07981
 O73 O 0.09627 1.01512 -0.15835
 O74 O -0.07447 1.01855 -0.17233
 Zr75 Zr 0.00644 1.01363 -0.11329
 O76 O 0.05925 0.95245 -0.05848
 O77 O -0.05531 1.06752 -0.06049
 C78 C -0.13450 1.01992 -0.15791
 C79 C 0.15302 1.00939 -0.13527
 C80 C 0.00158 1.15589 -0.13971
 C81 C 0.01569 0.87602 -0.15695
 H82 H 0.08811 1.09279 -0.07480
 O83 O 0.05901 1.06492 -0.05113
 H84 H -0.08037 0.92981 -0.09857
 O85 O -0.05561 0.95422 -0.06808
 O86 O 0.15095 0.99745 0.09914
 O87 O -0.17431 1.00203 0.06963
 O88 O 0.08298 1.16405 0.01598
 O89 O 0.08380 0.84445 -0.01168
 O90 O -0.08966 0.84679 -0.01333
 O91 O -0.08896 1.16788 -0.00265
 O92 O -0.01811 1.07524 0.16663
 O93 O -0.01872 0.90903 0.15470
 O94 O -0.00925 1.15842 0.09623
 O95 O -0.00782 0.83836 0.07315
 O96 O 0.15894 1.08542 0.02045
 O97 O -0.16555 1.09298 -0.01174
 O98 O -0.16573 0.92539 -0.01305
 O99 O 0.15999 0.91859 0.00350
 O100 O 0.06528 0.99244 0.16826
 O101 O -0.10331 0.98940 0.15223
 Zr102 Zr 0.10808 1.00322 0.00734
 Zr103 Zr -0.11414 1.00814 -0.01120
 Zr104 Zr -0.00312 1.11571 0.00496
 Zr105 Zr -0.00292 0.89543 -0.01005
 Zr106 Zr -0.01354 0.99658 0.10835
 O107 O -0.06538 0.94573 0.04630
 O108 O 0.04870 1.05639 0.06391
 C109 C 0.12551 0.99341 0.15606
 C110 C -0.16015 0.99251 0.12917
 C111 C 0.14092 1.14329 0.02260
 C112 C 0.14216 0.86196 -0.00572
 C113 C -0.14797 0.86744 -0.01093
 C114 C -0.14716 1.15007 -0.00906
 C115 C -0.01537 1.13419 0.15347
 C116 C -0.01416 0.85289 0.13305
 H117 H -0.09523 1.08340 0.08080
 O118 O -0.06544 1.05888 0.05398
 H119 H 0.07413 0.91484 0.08284
 O120 O 0.04890 0.94357 0.05544
 C121 C 0.35869 1.03782 0.32742
 C122 C 0.33501 1.00833 0.38330
 C123 C 0.27386 0.98324 0.38200
 C124 C 0.23854 0.98461 0.32558
 C125 C 0.26354 1.01263 0.26932
 C126 C 0.32351 1.03962 0.27097
 C127 C 0.22774 1.01376 0.21279
 C128 C 0.16685 0.98821 0.21260
 C129 C 0.14311 0.95980 0.26882
 C130 C 0.17860 0.95787 0.32463
 H131 H 0.25470 0.96006 0.42421
 H132 H 0.34316 1.06221 0.22872
 H133 H 0.24645 1.03572 0.16977
 H134 H 0.15890 0.93587 0.36720
 H135 H 0.40448 1.05998 0.32755
 H136 H 0.09658 0.93910 0.26982
 C137 C -0.28211 0.88928 0.37447
 C138 C -0.33205 0.93335 0.37958
 C139 C -0.34188 0.97624 0.32865
 C140 C -0.30134 0.97658 0.27520
 C141 C -0.25019 0.93350 0.27233
 C142 C -0.24204 0.88902 0.32113
 C143 C -0.20617 0.93744 0.22222
 C144 C -0.21208 0.98412 0.17522
 C145 C -0.26482 1.02466 0.17589
 C146 C -0.30923 1.02107 0.22590
 H147 H -0.37830 1.01221 0.33244
 H148 H -0.20360 0.85512 0.31885
 H149 H -0.16608 0.90542 0.22068
 H150 H -0.34850 1.05421 0.22710
 H151 H -0.27390 0.85489 0.41202
 H152 H -0.26998 1.06075 0.13954
 C153 C -0.27621 0.90783 -0.38260
 C154 C -0.32070 0.95662 -0.39305
 C155 C -0.31795 1.00960 -0.35425
 C156 C -0.27222 1.01333 -0.30600
 C157 C -0.22747 0.96428 -0.29739
 C158 C -0.23021 0.91165 -0.33551
 C159 C -0.18080 0.96843 -0.25052
 C160 C -0.17949 1.02002 -0.21070
 C161 C -0.22445 1.06824 -0.21828
 C162 C -0.27001 1.06541 -0.26641
 H163 H -0.34928 1.04914 -0.36337
 H164 H -0.19658 0.87345 -0.32910
 H165 H -0.14663 0.93069 -0.24356
 H166 H -0.30402 1.10337 -0.27204
 H167 H -0.27701 0.86627 -0.41122
 H168 H -0.22413 1.10795 -0.18701
 C169 C 0.29819 1.08329 -0.38118
 C170 C 0.33774 1.03018 -0.38435
 C171 C 0.33601 0.98598 -0.33414
 C172 C 0.29481 0.99444 -0.28171
 C173 C 0.25322 1.04670 -0.28058
 C174 C 0.25604 1.09136 -0.32994
 C175 C 0.20815 1.05239 -0.23118
 C176 C 0.20526 1.00739 -0.18208
 C177 C 0.24884 0.95743 -0.18145
 C178 C 0.29299 0.95063 -0.23132
 H179 H 0.36538 0.94424 -0.33690
 H180 H 0.22483 1.13189 -0.32955
 H181 H 0.17452 1.09112 -0.23140
 H182 H 0.32480 0.91054 -0.23116
 H183 H 0.29870 1.11772 -0.41952
 H184 H 0.24671 0.92220 -0.14393
 C185 C 0.32020 1.36085 -0.04190
 C186 C 0.36511 1.34761 0.00599
 C187 C 0.35319 1.29957 0.05056
 C188 C 0.29814 1.26412 0.04650
 C189 C 0.25318 1.27763 -0.00189
 C190 C 0.26435 1.32671 -0.04533
 C191 C 0.19934 1.24021 -0.00747
 C192 C 0.19153 1.18832 0.03331
 C193 C 0.23609 1.17593 0.08157
 C194 C 0.28849 1.21390 0.08868
 H195 H 0.38783 1.28874 0.08733
 H196 H 0.23081 1.33752 -0.08306
 H197 H 0.16549 1.24937 -0.04538
 H198 H 0.32246 1.20284 0.12597
 H199 H 0.32904 1.39688 -0.07745
 H200 H 0.23061 1.13620 0.11341
 C201 C 0.40358 0.73910 0.04902
 C202 C 0.39776 0.68624 0.01033
 C203 C 0.34139 0.67998 -0.02496
 C204 C 0.29146 0.72391 -0.01957
 C205 C 0.29863 0.77628 0.01953
 C206 C 0.35482 0.78342 0.05348
 C207 C 0.24966 0.82099 0.02386
 C208 C 0.19273 0.81367 -0.00942
 C209 C 0.18532 0.76086 -0.04725
 C210 C 0.23450 0.71665 -0.05279
 H211 H 0.33690 0.64196 -0.05799
 H212 H 0.36101 0.82320 0.08387
 H213 H 0.25568 0.86131 0.05359
 H214 H 0.22795 0.67677 -0.08293
 H215 H 0.44570 0.74566 0.07735
 H216 H 0.14197 0.75446 -0.07367
 C217 C -0.33135 0.65134 -0.06281
 C218 C -0.37253 0.66282 -0.01079
 C219 C -0.35772 0.70964 0.03237
 C220 C -0.30373 0.74584 0.02296
 C221 C -0.26234 0.73425 -0.02946
 C222 C -0.27624 0.68619 -0.07159
 C223 C -0.20924 0.77232 -0.03977
 C224 C -0.19911 0.82283 0.00053
 C225 C -0.24040 0.83337 0.05251
 C226 C -0.29177 0.79488 0.06412
 H227 H -0.38956 0.71909 0.07228
 H228 H -0.24553 0.67676 -0.11231
 H229 H -0.17763 0.76439 -0.08017
 H230 H -0.32302 0.80441 0.10442
 H231 H -0.34260 0.61622 -0.09732
 H232 H -0.23287 0.87188 0.08424
 C233 C -0.40115 1.27942 0.06110
 C234 C -0.40161 1.32441 0.01161
 C235 C -0.35090 1.32539 -0.03276
 C236 C -0.29916 1.28374 -0.02595
 C237 C -0.29994 1.23823 0.02359
 C238 C -0.35118 1.23639 0.06670
 C239 C -0.24961 1.19510 0.02907
 C240 C -0.19738 1.19812 -0.01287
 C241 C -0.19560 1.24462 -0.06056
 C242 C -0.24654 1.28672 -0.06762
 H243 H -0.35151 1.35893 -0.07199
 H244 H -0.35239 1.20196 0.10505
 H245 H -0.25080 1.15923 0.06607
 H246 H -0.24484 1.32149 -0.10560
 H247 H -0.43983 1.27759 0.09556
 H248 H -0.15571 1.24706 -0.09355
 C249 C 0.03619 1.36082 0.32520
 C250 C 0.00245 1.34016 0.38008
 C251 C -0.02916 1.28306 0.37688
 C252 C -0.02777 1.24813 0.32066
 C253 C 0.00566 1.26986 0.26600
 C254 C 0.03727 1.32645 0.26882
 C255 C 0.00809 1.23385 0.21016
 C256 C -0.02150 1.17581 0.20912
 C257 C -0.05533 1.15536 0.26368
 C258 C -0.05874 1.19122 0.31864
 H259 H -0.05613 1.26613 0.41781
 H260 H 0.06397 1.34358 0.22785
 H261 H 0.03463 1.24990 0.16857
 H262 H -0.08481 1.17391 0.35997
 H263 H 0.06385 1.40273 0.32640
 H264 H -0.07914 1.11114 0.26399
 C265 C 0.09150 1.32935 -0.35846
 C266 C 0.03299 1.33380 -0.39026
 C267 C -0.02002 1.30386 -0.36382
 C268 C -0.01550 1.27201 -0.30494
 C269 C 0.04358 1.26742 -0.27327
 C270 C 0.09687 1.29597 -0.30072
 C271 C 0.04847 1.23309 -0.21564
 C272 C -0.00513 1.20403 -0.18948
 C273 C -0.06383 1.21046 -0.22016
 C274 C -0.06910 1.24435 -0.27735
 H275 H -0.06535 1.30744 -0.38796
 H276 H 0.14253 1.29284 -0.27734
 H277 H 0.09415 1.22658 -0.19278
 H278 H -0.11471 1.24755 -0.30083
 H279 H 0.13297 1.35189 -0.37840
 H280 H -0.10508 1.18674 -0.20123
 C281 C -0.01988 0.64572 -0.32646
 C282 C 0.01592 0.66661 -0.37982
 C283 C 0.04640 0.72417 -0.37584
 C284 C 0.04133 0.75985 -0.32043
 C285 C 0.00555 0.73812 -0.26733
 C286 C -0.02442 0.68072 -0.27072
 C287 C -0.00112 0.77505 -0.21262
 C288 C 0.02642 0.83399 -0.21129
 C289 C 0.06281 0.85448 -0.26404
 C290 C 0.07053 0.81764 -0.31790
 H291 H 0.07470 0.74116 -0.41583
 H292 H -0.05281 0.66362 -0.23090
 H293 H -0.02949 0.75902 -0.17228
 H294 H 0.09837 0.83490 -0.35805
 H295 H -0.04671 0.60334 -0.32865
 H296 H 0.08520 0.89942 -0.26378
 C297 C -0.06381 0.72785 0.39599
 C298 C -0.01982 0.67839 0.38996
 C299 C 0.01374 0.67137 0.33184
 C300 C 0.00327 0.71317 0.28054
 C301 C -0.03896 0.76423 0.28856
 C302 C -0.07260 0.77083 0.34620
 C303 C -0.04571 0.80877 0.23944
 C304 C -0.01252 0.80215 0.18132
 C305 C 0.02689 0.74963 0.17236
 C306 C 0.03530 0.70581 0.22187
 H307 H 0.04863 0.63412 0.32703
 H308 H -0.10515 0.80963 0.35313
 H309 H -0.07583 0.84925 0.24696
 H310 H 0.06753 0.66675 0.21463
 H311 H -0.09044 0.73407 0.44010
 H312 H 0.05345 0.74397 0.12813
   
