data_POSCAR
  _audit_creation_date              2014-09-24
  _audit_creation_method            'ToBaCCo'
  _symmetry_space_group_name_H-M    'P1'
  _symmetry_Int_Tables_number       1
  _symmetry_cell_setting            triclinic
  loop_
  _symmetry_equiv_pos_as_xyz
 x,y,z
_cell_length_a 43.7076
_cell_length_b 45.8373
_cell_length_c 47.2495
_cell_angle_alpha 89.992400
_cell_angle_beta 90.841000
_cell_angle_gamma 89.918400
loop_
  _atom_site_label
  _atom_site_type_symbol
  _atom_site_fract_x
  _atom_site_fract_y
  _atom_site_fract_z
C1 C 0.26284 0.30273 -0.00142
 C2 C 0.27122 0.30504 -0.03031
 C3 C 0.29582 0.28784 -0.03982
 C4 C 0.31238 0.26905 -0.02163
 C5 C 0.30178 0.26520 0.00644
 C6 C 0.27791 0.28260 0.01631
 H7 H 0.27028 0.27980 0.03789
 H8 H 0.30400 0.29138 -0.06108
 C9 C 0.72173 0.68384 0.03154
 C10 C 0.72419 0.67473 0.00301
 C11 C 0.70420 0.68675 -0.01731
 C12 C 0.68125 0.70702 -0.01015
 C13 C 0.67720 0.71393 0.01907
 C14 C 0.69798 0.70258 0.03931
 H15 H 0.69542 0.70796 0.06149
 H16 H 0.70726 0.68066 -0.03921
 C17 C 0.70137 0.34538 0.98922
 C18 C 0.69313 0.34240 1.01809
 C19 C 0.67096 0.32109 1.02479
 C20 C 0.65599 0.30433 1.00382
 C21 C 0.66467 0.30754 0.97522
 C22 C 0.68822 0.32706 0.96872
 H23 H 0.69447 0.33001 0.94676
 H24 H 0.66458 0.31772 1.04660
 C25 C 0.29464 0.66696 0.99368
 C26 C 0.28588 0.66751 1.02233
 C27 C 0.30236 0.68478 1.04162
 C28 C 0.32640 0.70315 1.03326
 C29 C 0.33366 0.70405 1.00390
 C30 C 0.31867 0.68489 0.98492
 H31 H 0.32326 0.68639 0.96247
 H32 H 0.29674 0.68282 1.06380
 C33 C 0.02031 0.29654 0.34232
 C34 C -0.01192 0.29720 0.34120
 C35 C -0.02686 0.30953 0.31763
 C36 C -0.01026 0.32096 0.29498
 C37 C 0.02219 0.32009 0.29607
 C38 C 0.03694 0.30780 0.31980
 H39 H 0.06173 0.30785 0.32125
 H40 H -0.05167 0.31022 0.31693
 C41 C 0.00002 0.69997 0.64904
 C42 C -0.03096 0.69234 0.65435
 C43 C -0.03679 0.67138 0.67547
 C44 C -0.01310 0.65706 0.69064
 C45 C 0.01775 0.66541 0.68547
 C46 C 0.02350 0.68706 0.66523
 H47 H 0.04700 0.69304 0.66105
 H48 H -0.06029 0.66541 0.67957
 C49 C 1.00980 0.70784 0.32659
 C50 C 1.04171 0.71102 0.32350
 C51 C 1.05773 0.69127 0.30682
 C52 C 1.04248 0.66994 0.29037
 C53 C 1.00977 0.67089 0.28929
 C54 C 0.99398 0.68883 0.30834
 H55 H 0.96925 0.68757 0.30920
 H56 H 1.08240 0.69345 0.30576
 C57 C 0.97366 0.29908 0.66522
 C58 C 1.00270 0.28873 0.67502
 C59 C 1.01729 0.30396 0.69746
 C60 C 1.00457 0.32902 0.70965
 C61 C 0.97543 0.33862 0.70050
 C62 C 0.96039 0.32322 0.67883
 H63 H 0.93740 0.32990 0.67278
 H64 H 1.04013 0.29761 0.70432
 C65 C 0.35312 0.01590 0.31726
 C66 C 0.35740 -0.01334 0.32664
 C67 C 0.34055 -0.02293 0.35002
 C68 C 0.31834 -0.00551 0.36310
 C69 C 0.31165 0.02227 0.35129
 C70 C 0.32936 0.03271 0.32878
 H71 H 0.32597 0.05494 0.32151
 H72 H 0.34301 -0.04529 0.35715
 C73 C 0.66119 0.00520 0.68833
 C74 C 0.66044 -0.02475 0.69548
 C75 C 0.67476 -0.04509 0.67788
 C76 C 0.69067 -0.03616 0.65379
 C77 C 0.69403 -0.00598 0.64833
 C78 C 0.67914 0.01423 0.66559
 H79 H 0.67997 0.03722 0.66016
 H80 H 0.67323 -0.06814 0.68284
 C81 C 0.29482 0.97581 0.74379
 C82 C 0.30125 1.00555 0.73755
 C83 C 0.28919 1.01753 0.71223
 C84 C 0.26967 1.00124 0.69421
 C85 C 0.26023 0.97300 0.70321
 C86 C 0.27362 0.96036 0.72726
 H87 H 0.26774 0.93817 0.73298
 H88 H 0.29518 1.03962 0.70641
 C89 C 0.69296 1.00705 0.26897
 C90 C 0.70339 1.03608 0.26472
 C91 C 0.73083 1.04489 0.27793
 C92 C 0.74653 1.02699 0.29743
 C93 C 0.73437 0.99895 0.30350
 C94 C 0.70903 0.98877 0.28796
 H95 H 0.69983 0.96742 0.29282
 H96 H 0.73949 1.06660 0.27369
 O97 O 0.82742 0.86633 0.51493
 O98 O 0.88547 0.83804 0.46693
 O99 O 0.84311 0.87999 0.46437
 O100 O 0.86780 0.82601 0.51735
 O101 O 0.83465 0.79445 0.49956
 O102 O 0.81030 0.84852 0.44577
 O103 O 0.85214 0.80701 0.44843
 O104 O 0.79374 0.83534 0.49702
 Cu105 Cu 0.85951 0.85591 0.49216
 Cu106 Cu 0.81943 0.81825 0.47063
 C107 C 0.80074 0.85543 0.51451
 C108 C 0.87915 0.81701 0.45040
 C109 C 0.82178 0.87392 0.44682
 C110 C 0.85515 0.80110 0.51782
 O111 O 0.15095 0.10685 0.53255
 O112 O 0.11623 0.16323 0.48675
 O113 O 0.15318 0.12032 0.47911
 O114 O 0.11086 0.14918 0.53961
 O115 O 0.14919 0.17898 0.54985
 O116 O 0.19266 0.14839 0.49015
 O117 O 0.15489 0.19258 0.49700
 O118 O 0.18840 0.13711 0.54415
 Cu119 Cu 0.12895 0.13183 0.50865
 Cu120 Cu 0.17522 0.16721 0.52121
 C121 C 0.17554 0.11246 0.54619
 C122 C 0.12973 0.18759 0.48414
 C123 C 0.18002 0.12934 0.47428
 C124 C 0.12258 0.16926 0.55469
 O125 O 0.15629 0.90281 0.48487
 O126 O 0.09523 0.85713 0.51572
 O127 O 0.13382 0.89553 0.53554
 O128 O 0.11691 0.86497 0.46548
 O129 O 0.14909 0.82874 0.47382
 O130 O 0.16803 0.86098 0.54369
 O131 O 0.12935 0.82267 0.52513
 O132 O 0.18914 0.86707 0.49305
 Cu133 Cu 0.12228 0.88371 0.49958
 Cu134 Cu 0.16236 0.84135 0.50955
 C135 C 0.18330 0.89254 0.48389
 C136 C 0.10216 0.83224 0.52583
 C137 C 0.15373 0.88364 0.55164
 C138 C 0.12951 0.84137 0.45782
 O139 O 0.87462 0.15519 0.53480
 O140 O 0.86172 0.11113 0.47065
 O141 O 0.88775 0.16071 0.48190
 O142 O 0.84420 0.10639 0.52329
 O143 O 0.80174 0.13023 0.51222
 O144 O 0.84506 0.18577 0.47462
 O145 O 0.82067 0.13730 0.46028
 O146 O 0.83188 0.17937 0.52566
 Cu147 Cu 0.87117 0.13064 0.50387
 Cu148 Cu 0.82008 0.16003 0.49278
 C149 C 0.85649 0.17608 0.53998
 C150 C 0.83957 0.11730 0.45403
 C151 C 0.87369 0.18286 0.47184
 C152 C 0.81523 0.10877 0.52378
 O153 O 0.47314 0.89442 0.87170
 O154 O 0.53587 0.84534 0.89508
 O155 O 0.53264 0.89121 0.86224
 O156 O 0.47848 0.85222 0.90643
 O157 O 0.46792 0.82181 0.87134
 O158 O 0.52207 0.86238 0.82601
 O159 O 0.52541 0.81650 0.85886
 O160 O 0.46352 0.86483 0.83571
 Cu161 Cu 0.50642 0.87397 0.88721
 Cu162 Cu 0.49383 0.83848 0.84434
 C163 C 0.45715 0.88726 0.85011
 C164 C 0.54093 0.82217 0.88105
 C165 C 0.53688 0.88362 0.83680
 C166 C 0.46364 0.83071 0.89652
 O167 O 0.47858 0.10764 0.15565
 O168 O 0.51669 0.15196 0.10113
 O169 O 0.53466 0.12153 0.14522
 O170 O 0.46014 0.13690 0.11069
 O171 O 0.45499 0.17658 0.13660
 O172 O 0.52864 0.16049 0.17197
 O173 O 0.51153 0.19108 0.12801
 O174 O 0.47216 0.14721 0.18166
 Cu175 Cu 0.49792 0.12561 0.12541
 Cu176 Cu 0.49122 0.17277 0.15717
 C177 C 0.46941 0.11990 0.17810
 C178 C 0.52063 0.17906 0.10546
 C179 C 0.54413 0.13820 0.16494
 C180 C 0.44506 0.15954 0.11738
 O181 O 0.53466 0.11964 0.82567
 O182 O 0.48686 0.15339 0.88025
 O183 O 0.47840 0.11236 0.84353
 O184 O 0.54158 0.16171 0.86335
 O185 O 0.52360 0.19388 0.83261
 O186 O 0.46241 0.14339 0.81070
 O187 O 0.46790 0.18392 0.84829
 O188 O 0.51777 0.15204 0.79461
 Cu189 Cu 0.51236 0.13334 0.85609
 Cu190 Cu 0.49154 0.17159 0.81830
 C191 C 0.53403 0.12989 0.80069
 C192 C 0.46909 0.17427 0.87348
 C193 C 0.45951 0.11954 0.82401
 C194 C 0.54248 0.18688 0.85218
 O195 O 0.52202 0.89814 0.15253
 O196 O 0.46386 0.84453 0.13202
 O197 O 0.46975 0.88340 0.17187
 O198 O 0.51785 0.85585 0.11367
 O199 O 0.54013 0.82498 0.14343
 O200 O 0.49120 0.85088 0.20035
 O201 O 0.48534 0.81187 0.16050
 O202 O 0.54369 0.86629 0.18170
 Cu203 Cu 0.49153 0.87373 0.13938
 Cu204 Cu 0.51736 0.83523 0.17421
 C205 C 0.54169 0.89193 0.17159
 C206 C 0.46461 0.81921 0.14271
 C207 C 0.47274 0.87192 0.19629
 C208 C 0.53666 0.83522 0.11871
 O209 O 0.85084 0.47610 0.88888
 O210 O 0.90668 0.52441 0.85446
 O211 O 0.87097 0.52778 0.89994
 O212 O 0.88674 0.47271 0.84533
 O213 O 0.85026 0.49197 0.81844
 O214 O 0.83513 0.54766 0.87267
 O215 O 0.86957 0.54388 0.82839
 O216 O 0.81406 0.49633 0.86295
 Cu217 Cu 0.88259 0.49859 0.87497
 Cu218 Cu 0.83850 0.52168 0.84291
 C219 C 0.82270 0.47886 0.88234
 C220 C 0.89772 0.54146 0.83476
 C221 C 0.84969 0.54634 0.89606
 C222 C 0.87182 0.47361 0.82210
 O223 O 0.10910 0.51535 0.15424
 O224 O 0.12834 0.46102 0.09948
 O225 O 0.10514 0.45913 0.14998
 O226 O 0.13120 0.51848 0.10386
 O227 O 0.17787 0.51418 0.12209
 O228 O 0.15219 0.45392 0.16707
 O229 O 0.17500 0.45801 0.11770
 O230 O 0.15543 0.51025 0.17282
 Cu231 Cu 0.11376 0.48889 0.12483
 Cu232 Cu 0.16983 0.48384 0.14672
 C233 C 0.12903 0.52179 0.17306
 C234 C 0.15504 0.44993 0.09963
 C235 C 0.12430 0.44628 0.16614
 C236 C 0.15886 0.52671 0.10555
 O237 O 0.88980 0.46543 0.15133
 O238 O 0.85349 0.53039 0.12105
 O239 O 0.89959 0.52218 0.15312
 O240 O 0.84056 0.47470 0.12057
 O241 O 0.81278 0.47953 0.15886
 O242 O 0.87198 0.52595 0.19178
 O243 O 0.82509 0.53557 0.15905
 O244 O 0.86226 0.46986 0.18986
 Cu245 Cu 0.87369 0.49732 0.13276
 Cu246 Cu 0.84010 0.50287 0.17868
 C247 C 0.88251 0.45653 0.17572
 C248 C 0.83405 0.54467 0.13512
 C249 C 0.89522 0.53296 0.17754
 C250 C 0.81634 0.46923 0.13418
 O251 O 0.11905 0.47731 0.83057
 O252 O 0.15811 0.53395 0.87110
 O253 O 0.12541 0.53338 0.82421
 O254 O 0.15703 0.47571 0.87218
 O255 O 0.19743 0.47254 0.84473
 O256 O 0.16681 0.52897 0.79843
 O257 O 0.19957 0.52982 0.84528
 O258 O 0.15929 0.47252 0.80308
 Cu259 Cu 0.13618 0.50592 0.85246
 Cu260 Cu 0.18482 0.50086 0.82026
 C261 C 0.13259 0.46471 0.81049
 C262 C 0.18494 0.54201 0.86517
 C263 C 0.14093 0.54048 0.80263
 C264 C 0.18188 0.46320 0.86517
 C265 C 0.22354 0.35885 0.04262
 C266 C 0.19430 0.35837 0.03136
 C267 C 0.18539 0.33871 0.01032
 C268 C 0.20773 0.31933 0.00019
 C269 C 0.23815 0.32030 0.01111
 C270 C 0.24584 0.33985 0.03306
 O271 O 0.22779 0.37932 0.06197
 C272 C 0.20071 0.39215 0.06303
 C273 C 0.17929 0.38033 0.04479
 C274 C 0.14947 0.39103 0.04265
 C275 C 0.14148 0.41453 0.06031
 C276 C 0.16332 0.42671 0.07946
 C277 C 0.19339 0.41534 0.08047
 H278 H 0.16232 0.33864 0.00169
 H279 H 0.20174 0.30428 -0.01665
 H280 H 0.26896 0.34111 0.04155
 H281 H 0.13294 0.38152 0.02810
 H282 H 0.11831 0.42290 0.05935
 H283 H 0.21073 0.42396 0.09476
 C284 C 0.75890 0.63931 0.08916
 C285 C 0.78917 0.64550 0.08420
 C286 C 0.79840 0.66670 0.06509
 C287 C 0.77555 0.68129 0.04953
 C288 C 0.74431 0.67431 0.05323
 C289 C 0.73575 0.65412 0.07435
 O290 O 0.75518 0.61595 0.10543
 C291 C 0.78366 0.60707 0.11064
 C292 C 0.80524 0.62446 0.09807
 C293 C 0.83613 0.61739 0.09771
 C294 C 0.84517 0.59123 0.11064
 C295 C 0.82347 0.57286 0.12374
 C296 C 0.79231 0.58116 0.12428
 H297 H 0.82235 0.67060 0.06105
 H298 H 0.78217 0.69651 0.03320
 H299 H 0.71208 0.64773 0.07673
 H300 H 0.85252 0.63097 0.08694
 H301 H 0.86907 0.58501 0.11007
 H302 H 0.77523 0.56705 0.13341
 C303 C 0.75652 0.39336 0.94992
 C304 C 0.74093 0.41944 0.95061
 C305 C 0.71383 0.42316 0.96525
 C306 C 0.70196 0.39883 0.97931
 C307 C 0.71705 0.37148 0.97813
 C308 C 0.74481 0.36872 0.96333
 O309 O 0.78179 0.39451 0.93467
 C310 C 0.78198 0.42183 0.92531
 C311 C 0.75724 0.43784 0.93419
 C312 C 0.75199 0.46648 0.92575
 C313 C 0.77331 0.47928 0.90770
 C314 C 0.79951 0.46358 0.89897
 C315 C 0.80396 0.43443 0.90796
 H316 H 0.70199 0.44391 0.96544
 H317 H 0.68043 0.40089 0.99020
 H318 H 0.75642 0.34791 0.96180
 H319 H 0.73215 0.47850 0.93275
 H320 H 0.76991 0.50173 0.90118
 H321 H 0.82375 0.42199 0.90149
 C322 C 0.26158 0.61724 0.93701
 C323 C 0.23324 0.62992 0.93339
 C324 C 0.22413 0.65471 0.94793
 C325 C 0.24502 0.66693 0.96723
 C326 C 0.27423 0.65416 0.97176
 C327 C 0.28289 0.62919 0.95615
 O328 O 0.26484 0.59292 0.92195
 C329 C 0.23793 0.59022 0.90865
 C330 C 0.21790 0.61237 0.91506
 C331 C 0.18792 0.61325 0.90505
 C332 C 0.17791 0.59013 0.88802
 C333 C 0.19786 0.56683 0.88111
 C334 C 0.22855 0.56708 0.89116
 H335 H 0.20157 0.66404 0.94486
 H336 H 0.23836 0.68607 0.97910
 H337 H 0.30498 0.61896 0.95954
 H338 H 0.17254 0.63076 0.91074
 H339 H 0.15439 0.59015 0.88044
 H340 H 0.24402 0.54926 0.88665
 C341 C 0.06004 0.24836 0.39586
 C342 C 0.07231 0.26901 0.41386
 C343 C 0.06779 0.29880 0.40997
 C344 C 0.04993 0.30760 0.38655
 C345 C 0.03737 0.28666 0.36766
 C346 C 0.04276 0.25666 0.37221
 O347 O 0.06697 0.22123 0.40332
 C348 C 0.08409 0.22481 0.42646
 C349 C 0.08831 0.25362 0.43368
 C350 C 0.10633 0.26226 0.45668
 C351 C 0.12041 0.24028 0.47298
 C352 C 0.11579 0.21042 0.46627
 C353 C 0.09733 0.20264 0.44267
 H354 H 0.07769 0.31466 0.42438
 H355 H 0.04612 0.33065 0.38285
 H356 H 0.03419 0.24037 0.35755
 H357 H 0.10953 0.28507 0.46182
 H358 H 0.13443 0.24646 0.49109
 H359 H 0.09368 0.18003 0.43691
 C360 C 0.03873 0.75838 0.60579
 C361 C 0.02714 0.75250 0.57916
 C362 C 0.00727 0.72941 0.57376
 C363 C -0.00118 0.71190 0.59677
 C364 C 0.00946 0.71832 0.62465
 C365 C 0.03001 0.74177 0.62903
 O366 O 0.05889 0.77998 0.60618
 C367 C 0.05998 0.78804 0.57925
 C368 C 0.04075 0.77217 0.56183
 C369 C 0.03891 0.77667 0.53268
 C370 C 0.05812 0.79798 0.52103
 C371 C 0.07874 0.81381 0.53856
 C372 C 0.07949 0.80898 0.56806
 H373 H -0.00096 0.72470 0.55254
 H374 H -0.01614 0.69346 0.59297
 H375 H 0.03902 0.74682 0.64992
 H376 H 0.02376 0.76382 0.51935
 H377 H 0.05792 0.80132 0.49833
 H378 H 0.09555 0.82046 0.58170
 C379 C 0.95252 0.75203 0.36889
 C380 C 0.96788 0.75321 0.39448
 C381 C 0.99519 0.73868 0.39973
 C382 C 1.00767 0.72276 0.37748
 C383 C 0.99373 0.72280 0.35011
 C384 C 0.96520 0.73709 0.34597
 O385 O 0.92595 0.76623 0.36913
 C386 C 0.92480 0.77675 0.39535
 C387 C 0.95022 0.76972 0.41146
 C388 C 0.95442 0.77891 0.43925
 C389 C 0.93122 0.79576 0.45117
 C390 C 0.90417 0.80238 0.43554
 C391 C 0.90086 0.79279 0.40716
 H392 H 1.00628 0.73920 0.42036
 H393 H 1.02846 0.71053 0.38153
 H394 H 0.95363 0.73706 0.32556
 H395 H 0.97479 0.77321 0.45135
 H396 H 0.93378 0.80273 0.47299
 H397 H 0.88035 0.79752 0.39486
 C398 C 0.92858 0.24359 0.62165
 C399 C 0.91270 0.26223 0.60398
 C400 C 0.91768 0.29209 0.60347
 C401 C 0.93933 0.30341 0.62256
 C402 C 0.95479 0.28510 0.64244
 C403 C 0.94947 0.25456 0.64172
 O404 O 0.92161 0.21570 0.61721
 C405 C 0.90066 0.21695 0.59651
 C406 C 0.89403 0.24502 0.58817
 C407 C 0.87269 0.25166 0.56710
 C408 C 0.85829 0.22835 0.55323
 C409 C 0.86606 0.19907 0.56002
 C410 C 0.88719 0.19328 0.58239
 H411 H 0.90545 0.30617 0.58879
 H412 H 0.94349 0.32670 0.62239
 H413 H 0.96064 0.23996 0.65662
 H414 H 0.86784 0.27400 0.56106
 H415 H 0.84264 0.23318 0.53586
 H416 H 0.89390 0.17118 0.58772
 C417 C 0.39168 0.05987 0.25953
 C418 C 0.42187 0.05575 0.26716
 C419 C 0.43093 0.04011 0.29102
 C420 C 0.40795 0.02783 0.30755
 C421 C 0.37657 0.03078 0.29979
 C422 C 0.36831 0.04755 0.27563
 O423 O 0.38822 0.07580 0.23615
 C424 C 0.41686 0.08173 0.22890
 C425 C 0.43825 0.06980 0.24717
 C426 C 0.46961 0.07290 0.24358
 C427 C 0.47938 0.08915 0.22027
 C428 C 0.45788 0.10198 0.20134
 C429 C 0.42614 0.09827 0.20561
 H430 H 0.45484 0.03747 0.29672
 H431 H 0.41460 0.01569 0.32633
 H432 H 0.34458 0.05034 0.26930
 H433 H 0.48595 0.06319 0.25823
 H434 H 0.50368 0.09208 0.21707
 H435 H 0.40938 0.10800 0.19138
 C436 C 0.61754 0.05440 0.73829
 C437 C 0.59734 0.06708 0.71937
 C438 C 0.59681 0.06049 0.69070
 C439 C 0.61794 0.03988 0.68112
 C440 C 0.63928 0.02658 0.70006
 C441 C 0.63931 0.03433 0.72906
 O442 O 0.61344 0.06312 0.76478
 C443 C 0.59020 0.08173 0.76245
 C444 C 0.57978 0.08512 0.73504
 C445 C 0.55574 0.10357 0.72765
 C446 C 0.54154 0.11896 0.74946
 C447 C 0.55121 0.11530 0.77806
 C448 C 0.57607 0.09648 0.78459
 H449 H 0.58050 0.07059 0.67628
 H450 H 0.61768 0.03412 0.65888
 H451 H 0.65589 0.02550 0.74389
 H452 H 0.54801 0.10586 0.70589
 H453 H 0.52242 0.13308 0.74413
 H454 H 0.58395 0.09323 0.80620
 C455 C 0.36292 0.94387 0.78204
 C456 C 0.34991 0.93484 0.80689
 C457 C 0.31852 0.93635 0.81148
 C458 C 0.30000 0.94841 0.78986
 C459 C 0.31334 0.95933 0.76483
 C460 C 0.34512 0.95646 0.76068
 O461 O 0.39285 0.93930 0.78121
 C462 C 0.39901 0.92734 0.80618
 C463 C 0.37365 0.92450 0.82292
 C464 C 0.37511 0.91247 0.84996
 C465 C 0.40369 0.90223 0.85974
 C466 C 0.42969 0.90379 0.84225
 C467 C 0.42741 0.91679 0.81525
 H468 H 0.30870 0.92865 0.83099
 H469 H 0.27561 0.95051 0.79304
 H470 H 0.35569 0.96439 0.74157
 H471 H 0.35490 0.91044 0.86277
 H472 H 0.40528 0.89166 0.88023
 H473 H 0.44688 0.91763 0.80136
 C474 C 0.63896 0.95827 0.22782
 C475 C 0.61226 0.97406 0.22908
 C476 C 0.60983 0.99992 0.24429
 C477 C 0.63621 1.01020 0.25832
 C478 C 0.66456 0.99537 0.25566
 C479 C 0.66567 0.96865 0.24070
 O480 O 0.63596 0.93335 0.21372
 C481 C 0.60676 0.93355 0.20563
 C482 C 0.59140 0.95823 0.21411
 C483 C 0.56075 0.96321 0.20755
 C484 C 0.54517 0.94166 0.19202
 C485 C 0.56015 0.91549 0.18410
 C486 C 0.59144 0.91140 0.19091
 H487 H 0.58831 1.01153 0.24566
 H488 H 0.63471 1.02993 0.27081
 H489 H 0.68680 0.95645 0.23900
 H490 H 0.54919 0.98284 0.21434
 H491 H 0.52107 0.94476 0.18722
 H492 H 0.60327 0.89151 0.18525
 C493 C 0.36939 0.23265 0.93189
 C494 C 0.39315 0.22862 0.95085
 C495 C 0.39226 0.23845 0.97855
 C496 C 0.36560 0.25263 0.98722
 C497 C 0.33971 0.25572 0.96871
 C498 C 0.34230 0.24605 0.94024
 O499 O 0.37533 0.22247 0.90625
 C500 C 0.40341 0.21171 0.90919
 C501 C 0.41522 0.21468 0.93617
 C502 C 0.44401 0.20433 0.94414
 C503 C 0.46140 0.19044 0.92336
 C504 C 0.45000 0.18778 0.89522
 C505 C 0.42059 0.19861 0.88806
 H506 H 0.41168 0.23590 0.99284
 H507 H 0.36575 0.26208 1.00815
 H508 H 0.32350 0.24780 0.92518
 H509 H 0.45271 0.20676 0.96557
 H510 H 0.48395 0.18229 0.92899
 H511 H 0.41129 0.19663 0.86677
 C512 C 0.63422 0.76002 0.94771
 C513 C 0.62528 0.74259 0.92547
 C514 C 0.63480 0.71387 0.92268
 C515 C 0.65392 0.70239 0.94398
 C516 C 0.66330 0.71963 0.96771
 C517 C 0.65388 0.74934 0.96878
 O518 O 0.62108 0.78617 0.94722
 C519 C 0.60336 0.78511 0.92417
 C520 C 0.60531 0.75897 0.91004
 C521 C 0.58797 0.75264 0.88598
 C522 C 0.56749 0.77403 0.87621
 C523 C 0.56446 0.80105 0.89068
 C524 C 0.58301 0.80672 0.91490
 H525 H 0.62695 0.70044 0.90520
 H526 H 0.65986 0.67952 0.94260
 H527 H 0.66127 0.76375 0.98567
 H528 H 0.58977 0.73179 0.87538
 H529 H 0.55350 0.76918 0.85771
 H530 H 0.58112 0.82695 0.92658
 C531 C 0.38768 0.74274 0.07412
 C532 C 0.37132 0.75180 0.09712
 C533 C 0.34039 0.74623 0.09999
 C534 C 0.32567 0.73042 0.07843
 C535 C 0.34188 0.72001 0.05438
 C536 C 0.37364 0.72649 0.05254
 O537 O 0.41660 0.75165 0.07493
 C538 C 0.41841 0.76665 0.09897
 C539 C 0.39133 0.76719 0.11344
 C540 C 0.38771 0.78242 0.13866
 C541 C 0.41289 0.79827 0.14910
 C542 C 0.44074 0.79854 0.13423
 C543 C 0.44372 0.78231 0.10898
 H544 H 0.32784 0.75428 0.11797
 H545 H 0.30123 0.72740 0.08022
 H546 H 0.38735 0.71862 0.03526
 H547 H 0.36607 0.78272 0.14948
 H548 H 0.41043 0.81121 0.16811
 H549 H 0.46461 0.78293 0.09695
 C550 C 0.60900 0.24896 0.04367
 C551 C 0.58071 0.25277 0.03103
 C552 C 0.57554 0.27269 0.00925
 C553 C 0.60050 0.28939 0.00019
 C554 C 0.63004 0.28554 0.01255
 C555 C 0.63419 0.26502 0.03469
 O556 O 0.60879 0.23001 0.06493
 C557 C 0.57975 0.22163 0.06576
 C558 C 0.56160 0.23481 0.04539
 C559 C 0.53025 0.22979 0.04304
 C560 C 0.51707 0.21060 0.06260
 C561 C 0.53530 0.19710 0.08389
 C562 C 0.56707 0.20254 0.08544
 H563 H 0.55297 0.27573 -0.00002
 H564 H 0.59674 0.30565 -0.01612
 H565 H 0.65632 0.26200 0.04489
 H566 H 0.51637 0.24057 0.02700
 H567 H 0.49265 0.20667 0.06157
 H568 H 0.58129 0.19275 0.10184
 C569 C 0.23822 0.05188 0.63911
 C570 C 0.23445 0.03271 0.61696
 C571 C 0.24456 0.00408 0.61808
 C572 C 0.25811 -0.00552 0.64342
 C573 C 0.25999 0.01288 0.66771
 C574 C 0.25114 0.04260 0.66484
 O575 O 0.22719 0.07830 0.63343
 C576 C 0.21607 0.07556 0.60724
 C577 C 0.21963 0.04797 0.59634
 C578 C 0.20829 0.03983 0.56983
 C579 C 0.19290 0.06115 0.55372
 C580 C 0.18983 0.08997 0.56413
 C581 C 0.20159 0.09729 0.59126
 H582 H 0.24220 -0.01037 0.60006
 H583 H 0.26730 -0.02741 0.64402
 H584 H 0.25222 0.05760 0.68252
 H585 H 0.21101 0.01783 0.56192
 H586 H 0.18403 0.05547 0.53292
 H587 H 0.19921 0.11912 0.59972
 C588 C 0.78938 0.07462 0.34682
 C589 C 0.81312 0.05645 0.35460
 C590 C 0.81824 0.02977 0.34148
 C591 C 0.79722 0.02093 0.32044
 C592 C 0.77147 0.03860 0.31313
 C593 C 0.76876 0.06665 0.32550
 O594 O 0.78630 0.09734 0.36390
 C595 C 0.80846 0.09340 0.38295
 C596 C 0.82568 0.06879 0.37821
 C597 C 0.84839 0.05932 0.39701
 C598 C 0.85345 0.07585 0.42169
 C599 C 0.83554 0.10104 0.42724
 C600 C 0.81300 0.11003 0.40728
 H601 H 0.83677 0.01558 0.34822
 H602 H 0.80014 -0.00032 0.31081
 H603 H 0.74900 0.08039 0.32142
 H604 H 0.86125 0.03955 0.39317
 H605 H 0.87072 0.06856 0.43677
 H606 H 0.79864 0.12888 0.41097
 C607 C 0.74074 0.92141 0.60388
 C608 C 0.71983 0.90187 0.59292
 C609 C 0.68972 0.90060 0.60191
 C610 C 0.68071 0.92062 0.62267
 C611 C 0.70173 0.94133 0.63389
 C612 C 0.73237 0.94128 0.62471
 O613 O 0.76792 0.91961 0.59190
 C614 C 0.76406 0.89853 0.57296
 C615 C 0.73509 0.88691 0.57270
 C616 C 0.72603 0.86500 0.55400
 C617 C 0.74779 0.85463 0.53484
 C618 C 0.77786 0.86632 0.53469
 C619 C 0.78597 0.88860 0.55416
 H620 H 0.67360 0.88517 0.59288
 H621 H 0.65714 0.92061 0.62943
 H622 H 0.74893 0.95674 0.63300
 H623 H 0.70303 0.85630 0.55408
 H624 H 0.74117 0.83759 0.52012
 H625 H 0.80862 0.89812 0.55463
 C626 C 0.25870 0.96771 0.41277
 C627 C 0.27723 0.95366 0.43220
 C628 C 0.30888 0.95373 0.43081
 C629 C 0.32212 0.96841 0.40815
 C630 C 0.30385 0.98299 0.38730
 C631 C 0.27147 0.98308 0.39018
 O632 O 0.22909 0.96256 0.41673
 C633 C 0.22910 0.94483 0.43906
 C634 C 0.25806 0.93882 0.44925
 C635 C 0.26387 0.91905 0.47094
 C636 C 0.23882 0.90456 0.48251
 C637 C 0.20863 0.91004 0.47241
 C638 C 0.20363 0.93091 0.45065
 H639 H 0.32290 0.94209 0.44615
 H640 H 0.34685 0.96824 0.40672
 H641 H 0.25658 0.99258 0.37417
 H642 H 0.28696 0.91435 0.47818
 H643 H 0.24302 0.88873 0.49915
 H644 H 0.18092 0.93505 0.44211
 C645 C 0.05303 0.38766 0.74415
 C646 C 0.06407 0.37269 0.76737
 C647 C 0.05540 0.34427 0.77366
 C648 C 0.03495 0.33045 0.75490
 C649 C 0.02345 0.34523 0.73062
 C650 C 0.03239 0.37439 0.72532
 O651 O 0.06439 0.41447 0.74208
 C652 C 0.08302 0.41641 0.76450
 C653 C 0.08359 0.39136 0.78059
 C654 C 0.10098 0.38863 0.80529
 C655 C 0.11807 0.41289 0.81409
 C656 C 0.11788 0.43896 0.79799
 C657 C 0.10024 0.44081 0.77273
 H658 H 0.06443 0.33299 0.79209
 H659 H 0.02833 0.30810 0.75898
 H660 H 0.02428 0.38595 0.70668
 H661 H 0.10080 0.36879 0.81772
 H662 H 0.13074 0.41173 0.83391
 H663 H 0.09910 0.46082 0.76059
 C664 C 0.07159 0.61408 0.23928
 C665 C 0.09615 0.60348 0.25452
 C666 C 0.10448 0.61420 0.28094
 C667 C 0.08649 0.63653 0.29230
 C668 C 0.06046 0.64795 0.27730
 C669 C 0.05366 0.63656 0.24995
 O670 O 0.06764 0.60094 0.21446
 C671 C 0.09018 0.58154 0.21414
 C672 C 0.10838 0.58231 0.23811
 C673 C 0.13357 0.56416 0.24206
 C674 C 0.14024 0.54433 0.22040
 C675 C 0.12162 0.54287 0.19554
 C676 C 0.09618 0.56180 0.19247
 H677 H 0.12392 0.60545 0.29260
 H678 H 0.09233 0.64408 0.31341
 H679 H 0.03620 0.64558 0.23631
 H680 H 0.14761 0.56525 0.26109
 H681 H 0.15976 0.52998 0.22312
 H682 H 0.08167 0.56139 0.17370
 C683 C 0.93864 0.37187 0.25319
 C684 C 0.94489 0.36332 0.22597
 C685 C 0.96421 0.34005 0.21988
 C686 C 0.97801 0.32531 0.24280
 C687 C 0.97261 0.33434 0.27100
 C688 C 0.95211 0.35756 0.27621
 O689 O 0.92071 0.39522 0.25441
 C690 C 0.91562 0.40167 0.22738
 C691 C 0.92996 0.38287 0.20912
 C692 C 0.92910 0.38658 0.17993
 C693 C 0.91299 0.41073 0.16914
 C694 C 0.89799 0.43048 0.18753
 C695 C 0.89909 0.42559 0.21709
 H696 H 0.96895 0.33384 0.19828
 H697 H 0.99354 0.30744 0.23865
 H698 H 0.94792 0.36510 0.29753
 H699 H 0.94090 0.37173 0.16599
 H700 H 0.91237 0.41414 0.14646
 H701 H 0.88835 0.44051 0.23170
 C702 C 0.94867 0.61768 0.74923
 C703 C 0.96701 0.59340 0.75159
 C704 C 0.99034 0.58748 0.73279
 C705 C 0.99573 0.60800 0.71139
 C706 C 0.97900 0.63470 0.70998
 C707 C 0.95414 0.63873 0.72864
 O708 O 0.92652 0.61838 0.76812
 C709 C 0.93113 0.59410 0.78288
 C710 C 0.95591 0.57824 0.77392
 C711 C 0.96480 0.55204 0.78646
 C712 C 0.94676 0.54129 0.80850
 C713 C 0.92012 0.55647 0.81698
 C714 C 0.91257 0.58354 0.80432
 H715 H 1.00371 0.56764 0.73433
 H716 H 1.01320 0.60313 0.69609
 H717 H 0.94036 0.65838 0.72824
 H718 H 0.98442 0.53996 0.77909
 H719 H 0.95242 0.52027 0.81768
 H720 H 0.89212 0.59535 0.81010
 C721 C 0.78330 0.63360 0.96020
 C722 C 0.78802 0.60950 0.97703
 C723 C 0.77210 0.60485 1.00184
 C724 C 0.75070 0.62603 1.00976
 C725 C 0.74681 0.65218 0.99391
 C726 C 0.76337 0.65574 0.96853
 O727 O 0.79769 0.63200 0.93567
 C728 C 0.81196 0.60643 0.93717
 C729 C 0.80728 0.59209 0.96233
 C730 C 0.81915 0.56452 0.96804
 C731 C 0.83576 0.55077 0.94664
 C732 C 0.83928 0.56430 0.91989
 C733 C 0.82768 0.59278 0.91528
 H734 H 0.77497 0.58497 1.01396
 H735 H 0.73666 0.62164 1.02787
 H736 H 0.76041 0.67488 0.95535
 H737 H 0.81494 0.55360 0.98792
 H738 H 0.84397 0.52874 0.95019
 H739 H 0.82945 0.60329 0.89485
 C740 C 0.23282 0.37034 0.93700
 C741 C 0.22706 0.35961 0.91035
 C742 C 0.23555 0.33180 0.90196
 C743 C 0.25030 0.31399 0.92199
 C744 C 0.25636 0.32401 0.95006
 C745 C 0.24781 0.35307 0.95728
 O746 O 0.22376 0.39790 0.94015
 C747 C 0.21201 0.40462 0.91484
 C748 C 0.21366 0.38183 0.89593
 C749 C 0.20446 0.38416 0.86782
 C750 C 0.19343 0.41120 0.85863
 C751 C 0.19120 0.43511 0.87753
 C752 C 0.20030 0.43181 0.90623
 H753 H 0.23092 0.32401 0.88070
 H754 H 0.25618 0.29197 0.91574
 H755 H 0.25363 0.36253 0.97760
 H756 H 0.20650 0.36603 0.85329
 H757 H 0.18705 0.41376 0.83652
 H758 H 0.19957 0.44998 0.92083
 C759 C 0.23300 0.60757 0.04120
 C760 C 0.21107 0.62313 0.05541
 C761 C 0.21247 0.65316 0.05898
 C762 C 0.23763 0.66774 0.04769
 C763 C 0.26014 0.65241 0.03213
 C764 C 0.25732 0.62187 0.02833
 O765 O 0.22969 0.57890 0.04371
 C766 C 0.20506 0.57636 0.05965
 C767 C 0.19246 0.60282 0.06687
 C768 C 0.16740 0.60539 0.08452
 C769 C 0.15515 0.57964 0.09562
 C770 C 0.16871 0.55232 0.08963
 C771 C 0.19376 0.55054 0.07115
 H772 H 0.19551 0.66477 0.07108
 H773 H 0.23949 0.69109 0.05084
 H774 H 0.27479 0.60941 0.01766
 H775 H 0.15814 0.62649 0.09012
 H776 H 0.13623 0.58106 0.11012
 H777 H 0.20477 0.52988 0.06679
 C778 C 0.74705 0.38971 0.06000
 C779 C 0.72861 0.39773 0.08194
 C780 C 0.69877 0.38783 0.08442
 C781 C 0.68729 0.36916 0.06325
 C782 C 0.70558 0.36059 0.03986
 C783 C 0.73627 0.37090 0.03887
 O784 O 0.77471 0.40167 0.06150
 C785 C 0.77363 0.41769 0.08490
 C786 C 0.74594 0.41595 0.09824
 C787 C 0.73984 0.43088 0.12313
 C788 C 0.76322 0.44832 0.13477
 C789 C 0.79203 0.45069 0.12139
 C790 C 0.79717 0.43507 0.09600
 H791 H 0.68460 0.39461 0.10183
 H792 H 0.66359 0.36262 0.06464
 H793 H 0.75184 0.36396 0.02262
 H794 H 0.71786 0.42915 0.13326
 H795 H 0.75876 0.46007 0.15416
 H796 H 0.81885 0.43626 0.08527
 C797 C 0.92163 0.74290 0.61011
 C798 C 0.89952 0.72402 0.60028
 C799 C 0.89753 0.69533 0.60953
 C800 C 0.91990 0.68539 0.62888
 C801 C 0.94411 0.70400 0.63835
 C802 C 0.94372 0.73368 0.62970
 O803 O 0.92070 0.76874 0.59749
 C804 C 0.89763 0.76605 0.57914
 C805 C 0.88381 0.73914 0.57998
 C806 C 0.86022 0.73123 0.56144
 C807 C 0.85057 0.75188 0.54118
 C808 C 0.86465 0.77975 0.53977
 C809 C 0.88840 0.78685 0.55929
 H810 H 0.88010 0.68075 0.60128
 H811 H 0.91950 0.66255 0.63469
 H812 H 0.96080 0.74905 0.63717
 H813 H 0.84994 0.70979 0.56223
 H814 H 0.83242 0.74601 0.52643
 H815 H 0.89992 0.80774 0.55868
 C816 C 0.95025 0.24713 0.39334
 C817 C 0.93364 0.26695 0.40869
 C818 C 0.93394 0.29676 0.40315
 C819 C 0.95227 0.30655 0.38095
 C820 C 0.96955 0.28651 0.36488
 C821 C 0.96827 0.25637 0.37099
 O822 O 0.94606 0.21972 0.40147
 C823 C 0.92626 0.22225 0.42235
 C824 C 0.91783 0.25070 0.42748
 C825 C 0.89601 0.25826 0.44728
 C826 C 0.88205 0.23555 0.46215
 C827 C 0.89040 0.20607 0.45728
 C828 C 0.91318 0.19933 0.43741
 H829 H 0.92043 0.31190 0.41535
 H830 H 0.95299 0.32964 0.37613
 H831 H 0.98035 0.24057 0.35832
 H832 H 0.88947 0.28075 0.45068
 H833 H 0.86458 0.24085 0.47735
 H834 H 0.91945 0.17696 0.43293
 C835 C 0.03963 0.23984 0.62216
 C836 C 0.05623 0.22204 0.64009
 C837 C 0.05471 0.22405 0.66931
 C838 C 0.03578 0.24566 0.68060
 C839 C 0.01864 0.26500 0.66277
 C840 C 0.02042 0.26149 0.63293
 O841 O 0.04573 0.23526 0.59504
 C842 C 0.06665 0.21418 0.59597
 C843 C 0.07391 0.20538 0.62308
 C844 C 0.09658 0.18483 0.62912
 C845 C 0.11242 0.17284 0.60625
 C846 C 0.10516 0.18142 0.57818
 C847 C 0.08186 0.20223 0.57289
 H848 H 0.06811 0.20986 0.68298
 H849 H 0.03451 0.24727 0.70342
 H850 H 0.00905 0.27639 0.61844
 H851 H 0.10222 0.17863 0.65068
 H852 H 0.13041 0.15703 0.61030
 H853 H 0.07640 0.20939 0.55156
 C854 C 0.09160 0.75755 0.37124
 C855 C 0.08206 0.78490 0.36290
 C856 C 0.06101 0.78946 0.34100
 C857 C 0.04887 0.76479 0.32745
 C858 C 0.05803 0.73638 0.33583
 C859 C 0.08039 0.73268 0.35749
 O860 O 0.10923 0.75798 0.39440
 C861 C 0.11077 0.78617 0.40081
 C862 C 0.09466 0.80352 0.38206
 C863 C 0.09104 0.83336 0.38586
 C864 C 0.10403 0.84581 0.41029
 C865 C 0.12013 0.82837 0.43043
 C866 C 0.12414 0.79818 0.42521
 H867 H 0.05329 0.81115 0.33532
 H868 H 0.03161 0.76768 0.31100
 H869 H 0.08705 0.71114 0.36472
 H870 H 0.07780 0.84644 0.37104
 H871 H 0.10069 0.86891 0.41393
 H872 H 0.13558 0.78417 0.44050
 C873 C 0.60638 0.93790 0.74553
 C874 C 0.62141 0.94287 0.77086
 C875 C 0.64894 0.95792 0.77288
 C876 C 0.66148 0.96840 0.74774
 C877 C 0.64594 0.96455 0.72149
 C878 C 0.61820 0.94870 0.72026
 O879 O 0.58099 0.92228 0.74836
 C880 C 0.57995 0.91744 0.77608
 C881 C 0.60408 0.92979 0.79074
 C882 C 0.60743 0.92793 0.81994
 C883 C 0.58493 0.91277 0.83475
 C884 C 0.55994 0.89944 0.82024
 C885 C 0.55753 0.90170 0.79039
 H886 H 0.66057 0.96108 0.79302
 H887 H 0.68329 0.97957 0.74860
 H888 H 0.60644 0.94481 0.70029
 H889 H 0.62660 0.93793 0.83097
 H890 H 0.58719 0.91112 0.85756
 H891 H 0.53861 0.89193 0.77878
 C892 C 0.39939 0.94597 0.27053
 C893 C 0.41376 0.92503 0.28671
 C894 C 0.41140 0.92379 0.31591
 C895 C 0.39314 0.94479 0.32907
 C896 C 0.37732 0.96665 0.31303
 C897 C 0.38089 0.96703 0.28311
 O898 O 0.40492 0.94330 0.24305
 C899 C 0.42320 0.92014 0.24196
 C900 C 0.42914 0.90813 0.26813
 C901 C 0.44763 0.88377 0.27205
 C902 C 0.46100 0.87151 0.24804
 C903 C 0.45587 0.88374 0.22073
 C904 C 0.43635 0.90833 0.21770
 H905 H 0.42334 0.90729 0.32821
 H906 H 0.39215 0.94432 0.35193
 H907 H 0.36866 0.98240 0.26974
 H908 H 0.45188 0.87470 0.29289
 H909 H 0.47587 0.85280 0.25091
 H910 H 0.43207 0.91834 0.19727
 C911 C 0.64965 0.07603 0.21361
 C912 C 0.64527 0.10138 0.22860
 C913 C 0.66010 0.10720 0.25412
 C914 C 0.67979 0.08576 0.26503
 C915 C 0.68473 0.05915 0.25030
 C916 C 0.67016 0.05475 0.22359
 O917 O 0.63094 0.07374 0.19127
 C918 C 0.61447 0.09815 0.19230
 C919 C 0.62260 0.11586 0.21463
 C920 C 0.60733 0.14162 0.22082
 C921 C 0.58229 0.14934 0.20353
 C922 C 0.57274 0.13118 0.18072
 C923 C 0.58950 0.10538 0.17480
 H924 H 0.65566 0.12700 0.26584
 H925 H 0.69029 0.08944 0.28563
 H926 H 0.67331 0.03473 0.21183
 H927 H 0.61398 0.15497 0.23878
 H928 H 0.56981 0.16906 0.20852
 H929 H 0.58258 0.09077 0.15789
 C930 C 0.36122 0.05667 0.76500
 C931 C 0.35917 0.05126 0.79352
 C932 C 0.33697 0.03338 0.80488
 C933 C 0.31667 0.01968 0.78600
 C934 C 0.31950 0.02285 0.75613
 C935 C 0.34146 0.04287 0.74569
 O936 O 0.38409 0.07452 0.75875
 C937 C 0.39675 0.08026 0.78388
 C938 C 0.38251 0.06630 0.80580
 C939 C 0.39283 0.06803 0.83373
 C940 C 0.41881 0.08511 0.83937
 C941 C 0.43342 0.10040 0.81727
 C942 C 0.42219 0.09796 0.78911
 H943 H 0.33529 0.03010 0.82748
 H944 H 0.29854 0.00665 0.79479
 H945 H 0.34463 0.04616 0.72324
 H946 H 0.38143 0.05648 0.85054
 H947 H 0.42716 0.08696 0.86099
 H948 H 0.43315 0.10919 0.77184
 C949 C 0.62812 0.76842 0.05848
 C950 C 0.59996 0.76327 0.04612
 C951 C 0.59502 0.74116 0.02646
 C952 C 0.62029 0.72416 0.01873
 C953 C 0.65012 0.73045 0.02951
 C954 C 0.65380 0.75260 0.05020
 O955 O 0.62739 0.78870 0.07852
 C956 C 0.59818 0.79672 0.07862
 C957 C 0.58054 0.78223 0.05879
 C958 C 0.54926 0.78710 0.05544
 C959 C 0.53544 0.80704 0.07388
 C960 C 0.55285 0.82087 0.09554
 C961 C 0.58474 0.81598 0.09768
 H962 H 0.57244 0.73679 0.01778
 H963 H 0.61676 0.70649 0.00384
 H964 H 0.67603 0.75759 0.05937
 H965 H 0.53584 0.77542 0.03971
 H966 H 0.51090 0.81023 0.07253
 H967 H 0.59834 0.82582 0.11447
 C968 C 0.34553 0.22509 0.06362
 C969 C 0.34505 0.19721 0.05276
 C970 C 0.32825 0.18974 0.02861
 C971 C 0.31216 0.21207 0.01457
 C972 C 0.31327 0.24117 0.02476
 C973 C 0.32907 0.24750 0.05036
 O974 O 0.36557 0.22834 0.08476
 C975 C 0.37809 0.20204 0.08722
 C976 C 0.36628 0.18217 0.06820
 C977 C 0.37811 0.15415 0.06530
 C978 C 0.40336 0.14643 0.08244
 C979 C 0.41634 0.16670 0.10190
 C980 C 0.40300 0.19474 0.10462
 H981 H 0.32878 0.16784 0.02008
 H982 H 0.30020 0.20714 -0.00509
 H983 H 0.33099 0.26969 0.05803
 H984 H 0.36888 0.13911 0.04974
 H985 H 0.41330 0.12495 0.07995
 H986 H 0.41276 0.21101 0.11869
 C987 C 0.62457 0.25234 0.92745
 C988 C 0.61539 0.27031 0.90560
 C989 C 0.62148 0.30001 0.90521
 C990 C 0.63772 0.31172 0.92828
 C991 C 0.64783 0.29374 0.95110
 C992 C 0.64133 0.26346 0.95048
 O993 O 0.61468 0.22511 0.92436
 C994 C 0.59898 0.22601 0.90005
 C995 C 0.59892 0.25315 0.88768
 C996 C 0.58287 0.25940 0.86280
 C997 C 0.56556 0.23691 0.85043
 C998 C 0.56443 0.20886 0.86313
 C999 C 0.58196 0.20327 0.88806
 H1000 H 0.61347 0.31379 0.88803
 H1001 H 0.64200 0.33498 0.92862
 H1002 H 0.64861 0.24919 0.96756
 H1003 H 0.58303 0.28103 0.85362
 H1004 H 0.55226 0.24169 0.83148
 H1005 H 0.58123 0.18231 0.89860
 C1006 C 0.38761 0.74770 0.95814
 C1007 C 0.38053 0.77553 0.96672
 C1008 C 0.35882 0.78148 0.98710
 C1009 C 0.34366 0.75775 0.99915
 C1010 C 0.35101 0.72867 0.99136
 C1011 C 0.37320 0.72366 0.97030
 O1012 O 0.40857 0.74703 0.93803
 C1013 C 0.41489 0.77507 0.93395
 C1014 C 0.39841 0.79331 0.95116
 C1015 C 0.40178 0.82341 0.95108
 C1016 C 0.42329 0.83527 0.93271
 C1017 C 0.44053 0.81708 0.91458
 C1018 C 0.43603 0.78651 0.91496
 H1019 H 0.35340 0.80364 0.99318
 H1020 H 0.32598 0.76203 1.01443
 H1021 H 0.37894 0.70176 0.96360
 H1022 H 0.38862 0.83724 0.96493
 H1023 H 0.42648 0.85871 0.93250
 H1024 H 0.44916 0.77216 0.90156
 C1025 C 0.76562 0.94235 0.35498
 C1026 C 0.76543 0.95847 0.37955
 C1027 C 0.75308 0.98631 0.38112
 C1028 C 0.74120 0.99847 0.35614
 C1029 C 0.74302 0.98328 0.33001
 C1030 C 0.75450 0.95437 0.32957
 O1031 O 0.77813 0.91609 0.35847
 C1032 C 0.78623 0.91586 0.38573
 C1033 C 0.77931 0.94149 0.39937
 C1034 C 0.78697 0.94674 0.42754
 C1035 C 0.80208 0.92447 0.44248
 C1036 C 0.80856 0.89742 0.42931
 C1037 C 0.80049 0.89297 0.40049
 H1038 H 0.75283 0.99835 0.40082
 H1039 H 0.73167 1.02028 0.35684
 H1040 H 0.75586 0.94223 0.30998
 H1041 H 0.78159 0.96727 0.43764
 H1042 H 0.80793 0.92795 0.46458
 H1043 H 0.80532 0.87252 0.38999
 C1044 C 0.21674 0.92229 0.65484
 C1045 C 0.18929 0.93697 0.65272
 C1046 C 0.18254 0.96131 0.66904
 C1047 C 0.20545 0.97165 0.68750
 C1048 C 0.23436 0.95764 0.68917
 C1049 C 0.23956 0.93175 0.67369
 O1050 O 0.21993 0.90192 0.63512
 C1051 C 0.19406 0.90389 0.62015
 C1052 C 0.17453 0.92496 0.63011
 C1053 C 0.14756 0.93271 0.61608
 C1054 C 0.14050 0.91832 0.59063
 C1055 C 0.16042 0.89672 0.57965
 C1056 C 0.18735 0.88911 0.59498
 H1057 H 0.16110 0.97292 0.66648
 H1058 H 0.20148 0.99160 0.69918
 H1059 H 0.26180 0.92132 0.67396
 H1060 H 0.13292 0.94984 0.62399
 H1061 H 0.11983 0.92447 0.57921
 H1062 H 0.20339 0.87326 0.58686
 C1063 C 0.26809 0.06954 0.40254
 C1064 C 0.24249 0.07593 0.38640
 C1065 C 0.23875 0.06651 0.35857
 C1066 C 0.26224 0.04958 0.34696
 C1067 C 0.28841 0.04200 0.36342
 C1068 C 0.29157 0.05245 0.39150
 O1069 O 0.26679 0.08007 0.42870
 C1070 C 0.23969 0.09323 0.42915
 C1071 C 0.22386 0.09114 0.40383
 C1072 C 0.19424 0.10173 0.40010
 C1073 C 0.18027 0.11476 0.42348
 C1074 C 0.19619 0.11745 0.44971
 C1075 C 0.22650 0.10686 0.45250
 H1076 H 0.21834 0.07173 0.34634
 H1077 H 0.25972 0.04162 0.32547
 H1078 H 0.31137 0.04688 0.40445
 H1079 H 0.18206 0.09939 0.38013
 H1080 H 0.15697 0.12262 0.42126
 H1081 H 0.23881 0.10801 0.47252
 C1082 C 0.75046 0.03518 0.60389
 C1083 C 0.73905 0.02959 0.57715
 C1084 C 0.71366 0.01189 0.57218
 C1085 C 0.69934 -0.00040 0.59577
 C1086 C 0.71051 0.00532 0.62352
 C1087 C 0.73646 0.02331 0.62760
 O1088 O 0.77397 0.05351 0.60409
 C1089 C 0.77741 0.05981 0.57689
 C1090 C 0.75649 0.04581 0.55956
 C1091 C 0.75451 0.05079 0.53057
 C1092 C 0.77466 0.07124 0.51904
 C1093 C 0.79647 0.08581 0.53642
 C1094 C 0.79820 0.07975 0.56572
 H1095 H 0.70490 0.00808 0.55096
 H1096 H 0.67923 -0.01384 0.59255
 H1097 H 0.74508 0.02829 0.64865
 H1098 H 0.73752 0.03994 0.51744
 H1099 H 0.77310 0.07605 0.49661
 H1100 H 0.81416 0.09121 0.57947
 C1101 C 0.96586 0.61114 0.25130
 C1102 C 0.96056 0.62469 0.22569
 C1103 C 0.96861 0.65350 0.22051
 C1104 C 0.98350 0.66879 0.24238
 C1105 C 0.99114 0.65471 0.26825
 C1106 C 0.98163 0.62567 0.27311
 O1107 O 0.95482 0.58413 0.25215
 C1108 C 0.94264 0.58051 0.22643
 C1109 C 0.94610 0.60453 0.20931
 C1110 C 0.93584 0.60536 0.18134
 C1111 C 0.92080 0.58060 0.17069
 C1112 C 0.91557 0.55610 0.18824
 C1113 C 0.92678 0.55595 0.21651
 H1114 H 0.96359 0.66384 0.20038
 H1115 H 0.99040 0.69116 0.23881
 H1116 H 0.98674 0.61477 0.29295
 H1117 H 0.93905 0.62446 0.16826
 H1118 H 0.91193 0.58102 0.14916
 H1119 H 0.92285 0.53755 0.23035
 C1120 C 0.93783 0.38843 0.75385
 C1121 C 0.92260 0.40729 0.73591
 C1122 C 0.92537 0.40619 0.70668
 C1123 C 0.94407 0.38432 0.69543
 C1124 C 0.95924 0.36384 0.71336
 C1125 C 0.95626 0.36622 0.74309
 O1126 O 0.93240 0.39358 0.78098
 C1127 C 0.91320 0.41608 0.78009
 C1128 C 0.90624 0.42509 0.75299
 C1129 C 0.88631 0.44804 0.74714
 C1130 C 0.87361 0.46283 0.77018
 C1131 C 0.88132 0.45474 0.79841
 C1132 C 0.90112 0.43069 0.80333
 H1133 H 0.91339 0.42147 0.69300
 H1134 H 0.94628 0.38293 0.67267
 H1135 H 0.96702 0.35068 0.75734
 H1136 H 0.88108 0.45463 0.72560
 H1137 H 0.85882 0.48135 0.76599
 H1138 H 0.90761 0.42405 0.82459
 C1139 C 0.06901 0.62863 0.74044
 C1140 C 0.09129 0.61777 0.72311
 C1141 C 0.09227 0.62364 0.69431
 C1142 C 0.06862 0.64056 0.68258
 C1143 C 0.04484 0.65163 0.69970
 C1144 C 0.04605 0.64684 0.72941
 O1145 O 0.07052 0.61772 0.76653
 C1146 C 0.09429 0.59959 0.76555
 C1147 C 0.10788 0.59917 0.73948
 C1148 C 0.13210 0.58092 0.73304
 C1149 C 0.14292 0.56224 0.75433
 C1150 C 0.12918 0.56164 0.78142
 C1151 C 0.10446 0.58075 0.78712
 H1152 H 0.10968 0.61421 0.68106
 H1153 H 0.06798 0.64374 0.65986
 H1154 H 0.02821 0.65489 0.74302
 H1155 H 0.14209 0.58077 0.71221
 H1156 H 0.16165 0.54771 0.74938
 H1157 H 0.09332 0.58067 0.80743
 C1158 C 0.05604 0.37343 0.24409
 C1159 C 0.08050 0.35749 0.23455
 C1160 C 0.08660 0.32917 0.24353
 C1161 C 0.06669 0.31682 0.26321
 C1162 C 0.04161 0.33301 0.27381
 C1163 C 0.03648 0.36187 0.26419
 O1164 O 0.05424 0.39990 0.23284
 C1165 C 0.07821 0.40076 0.21597
 C1166 C 0.09525 0.37548 0.21649
 C1167 C 0.12216 0.37222 0.20145
 C1168 C 0.13182 0.39599 0.18514
 C1169 C 0.11418 0.42192 0.18376
 C1170 C 0.08692 0.42430 0.19927
 H1171 H 0.10595 0.31703 0.23566
 H1172 H 0.07090 0.29473 0.27041
 H1173 H 0.01814 0.37514 0.27243
 H1174 H 0.13538 0.35226 0.20248
 H1175 H 0.15274 0.39410 0.17326
 H1176 H 0.07334 0.44408 0.19881
   
