data_POSCAR
  _audit_creation_date              2014-09-24
  _audit_creation_method            'ToBaCCo'
  _symmetry_space_group_name_H-M    'P1'
  _symmetry_Int_Tables_number       1
  _symmetry_cell_setting            triclinic
  loop_
  _symmetry_equiv_pos_as_xyz
 x,y,z
_cell_length_a 8.6495
_cell_length_b 8.7275
_cell_length_c 8.7390
_cell_angle_alpha 91.367300
_cell_angle_beta 91.218800
_cell_angle_gamma 91.622100
loop_
  _atom_site_label
  _atom_site_type_symbol
  _atom_site_fract_x
  _atom_site_fract_y
  _atom_site_fract_z
C1 C -0.01721 0.35938 0.16336
 C2 C 0.14099 0.40041 0.21158
 C3 C 0.16680 0.50135 0.32147
 C4 C 0.01170 0.59524 0.34139
 C5 C -0.11948 0.35414 0.29149
 C6 C -0.13366 0.47838 0.38038
 C7 C -0.07533 0.52411 0.10958
 C8 C -0.02821 0.65776 0.18403
 H9 H 0.22386 0.39649 0.12947
 H10 H 0.03966 0.68355 0.41318
 H11 H -0.21815 0.29864 0.25165
 H12 H -0.12946 0.53318 0.01005
 C13 C 0.02078 0.34586 0.82031
 C14 C -0.13407 0.37465 0.77206
 C15 C -0.16203 0.50752 0.69507
 C16 C -0.00819 0.59931 0.67849
 C17 C 0.09738 0.35422 0.68111
 C18 C 0.13721 0.50037 0.62159
 C19 C 0.08914 0.50013 0.89144
 C20 C 0.03077 0.65010 0.82907
 H21 H -0.21936 0.28547 0.75746
 H22 H -0.04706 0.69151 0.62057
 H23 H 0.12396 0.25072 0.63669
 H24 H 0.20516 0.50805 0.92720
 C25 C 0.16172 -0.01486 0.35442
 C26 C 0.21023 0.14201 0.39637
 C27 C 0.31893 0.16653 0.49915
 C28 C 0.33858 0.01012 0.59140
 C29 C 0.28949 -0.11945 0.35215
 C30 C 0.37835 -0.13580 0.47651
 C31 C 0.10492 -0.07381 0.51733
 C32 C 0.18031 -0.02896 0.65271
 H33 H 0.12712 0.22427 0.39130
 H34 H 0.41122 0.03726 0.67901
 H35 H 0.24705 -0.21804 0.30008
 H36 H 0.00318 -0.12914 0.52152
 C37 C 0.81381 0.01582 0.34775
 C38 C 0.76889 -0.13998 0.37304
 C39 C 0.69645 -0.17684 0.50612
 C40 C 0.67298 -0.01897 0.60203
 C41 C 0.66514 0.09029 0.35871
 C42 C 0.61455 0.13112 0.49825
 C43 C 0.88683 0.09131 0.50999
 C44 C 0.82809 0.03073 0.64811
 H45 H 0.75342 -0.22029 0.28096
 H46 H 0.61874 -0.05845 0.69945
 H47 H 0.62946 0.12670 0.25603
 H48 H 0.92744 0.20483 0.51418
 C49 C 0.35158 0.16750 0.98434
 C50 C 0.39321 0.21222 1.13500
 C51 C 0.50520 0.32414 1.16279
 C52 C 0.59579 0.33786 1.00825
 C53 C 0.35275 0.28856 0.88341
 C54 C 0.48645 0.37937 0.86489
 C55 C 0.50516 0.10801 0.92974
 C56 C 0.65405 0.18408 0.97291
 H57 H 0.38992 0.12613 1.21522
 H58 H 0.68837 0.40822 1.02870
 H59 H 0.30727 0.24314 0.78135
 H60 H 0.50881 0.01028 0.86987
 C61 C 0.35298 0.81986 1.02054
 C62 C 0.37894 0.76894 0.85966
 C63 C 0.50740 0.69899 0.83076
 C64 C 0.60679 0.67698 0.98310
 C65 C 0.36093 0.67165 1.09411
 C66 C 0.50149 0.61840 1.13287
 C67 C 0.50921 0.88884 1.08871
 C68 C 0.65870 0.83390 1.02370
 H69 H 0.28834 0.76046 0.77631
 H70 H 0.69271 0.61558 0.93111
 H71 H 0.25518 0.63560 1.12621
 H72 H 0.51329 0.92207 1.20374
 B73 B 0.99788 1.17126 0.08996
 B74 B 1.08924 1.00288 0.16630
 B75 B 0.89475 1.01213 0.15971
 B76 B 0.83285 1.10433 -0.01106
 B77 B 1.01321 1.16474 -0.10071
 B78 B 1.16785 1.09520 -0.00370
 B79 B 0.99862 0.82904 -0.09626
 B80 B 0.90335 1.00142 -0.16935
 B81 B 1.10107 0.99002 -0.16361
 B82 B 1.16165 0.90083 0.00960
 B83 B 0.98799 0.83961 0.10044
 B84 B 0.82637 0.90572 -0.00113
 B85 B 0.67723 0.49622 0.42177
 B86 B 0.66959 0.50889 0.61246
 B87 B 0.61542 0.66582 0.50727
 B88 B 0.52098 0.59013 0.33453
 B89 B 0.51029 0.40120 0.34376
 B90 B 0.59170 0.33479 0.51854
 B91 B 0.33349 0.51837 0.59101
 B92 B 0.34862 0.50752 0.40094
 B93 B 0.40161 0.34781 0.50812
 B94 B 0.49892 0.42229 0.67785
 B95 B 0.50943 0.61292 0.66335
 B96 B 0.42248 0.67410 0.49507
   
