data_POSCAR
  _audit_creation_date              2014-09-24
  _audit_creation_method            'ToBaCCo'
  _symmetry_space_group_name_H-M    'P1'
  _symmetry_Int_Tables_number       1
  _symmetry_cell_setting            triclinic
  loop_
  _symmetry_equiv_pos_as_xyz
 x,y,z
_cell_length_a 34.4447
_cell_length_b 34.3717
_cell_length_c 84.8493
_cell_angle_alpha 86.854100
_cell_angle_beta 91.622200
_cell_angle_gamma 120.486900
loop_
  _atom_site_label
  _atom_site_type_symbol
  _atom_site_fract_x
  _atom_site_fract_y
  _atom_site_fract_z
C1 C 0.00025 0.08556 0.52003
 H2 H 0.03261 0.08781 0.51913
 C3 C -0.00395 0.11616 0.52889
 H4 H 0.02530 0.14159 0.53498
 C5 C -0.07718 0.04922 0.51319
 H6 H -0.10540 0.02335 0.50688
 C7 C -0.08297 0.07909 0.52204
 H8 H -0.11579 0.07605 0.52246
 N9 N -0.03603 0.05292 0.51243
 C10 C -0.00890 -0.05645 0.50723
 H11 H -0.00844 -0.05775 0.49453
 C12 C -0.00711 -0.08978 0.51691
 H13 H -0.00514 -0.11660 0.51156
 C14 C -0.01549 -0.02180 0.52959
 H15 H -0.02003 0.00392 0.53451
 C16 C -0.01385 -0.05435 0.53967
 H17 H -0.01611 -0.05261 0.55229
 Zn18 Zn -0.02489 0.01527 0.50023
 N19 N -0.01355 -0.02366 0.51368
 C20 C 0.06195 0.04961 0.48605
 N21 N 0.02500 0.05394 0.48717
 C22 C 0.02225 0.08767 0.47906
 C23 C 0.05685 0.11799 0.46898
 C24 C 0.09752 0.07933 0.47604
 C25 C -0.11198 -0.05710 0.49474
 C26 C -0.14768 -0.08863 0.48576
 C27 C -0.10811 -0.04562 0.46220
 C28 C -0.07300 -0.01552 0.47166
 N29 N -0.07534 -0.02178 0.48761
 H30 H 0.06375 0.02299 0.49280
 H31 H -0.00720 0.09078 0.48039
 H32 H 0.05393 0.14468 0.46271
 H33 H 0.12628 0.07490 0.47499
 H34 H -0.11298 -0.06140 0.50748
 H35 H -0.17632 -0.11538 0.49214
 H36 H -0.10271 -0.03997 0.44961
 H37 H -0.04314 0.01199 0.46612
 C38 C -0.01061 -0.08950 0.53335
 C39 C -0.04593 0.11327 0.52995
 C40 C -0.14641 -0.08404 0.46903
 C41 C 0.09495 0.11381 0.46722
 C42 C 1.10142 0.03579 0.14306
 H43 H 1.10236 0.06764 0.14358
 C44 C 1.12959 0.03176 0.13267
 H45 H 1.15258 0.06097 0.12537
 C46 C 1.07091 -0.04042 0.15239
 H47 H 1.04807 -0.06828 0.16017
 C48 C 1.09862 -0.04600 0.14210
 H49 H 1.09646 -0.07851 0.14189
 N50 N 1.07252 -0.00006 0.15251
 C51 C 0.96667 0.03069 0.16033
 H52 H 0.96931 0.03565 0.17288
 C53 C 0.93238 0.03221 0.15159
 H54 H 0.90883 0.03870 0.15744
 C55 C 0.99228 0.01325 0.13759
 H56 H 1.01475 0.00455 0.13223
 C57 C 0.95827 0.01389 0.12849
 H58 H 0.95556 0.00665 0.11611
 Zn59 Zn 1.03676 0.01160 0.16574
 N60 N 0.99569 0.02122 0.15324
 C61 C 1.07470 0.10129 0.17691
 N62 N 1.07714 0.06300 0.17696
 C63 C 1.11044 0.05989 0.18483
 C64 C 1.14259 0.09580 0.19336
 C65 C 1.10618 0.13812 0.18540
 C66 C 0.96884 -0.07698 0.17423
 C67 C 0.93777 -0.11163 0.18440
 C68 C 0.97607 -0.06508 0.20642
 C69 C 1.00630 -0.03140 0.19585
 N70 N 1.00186 -0.03762 0.18006
 H71 H 1.04856 0.10345 0.17029
 H72 H 1.11176 0.02915 0.18454
 H73 H 1.16827 0.09219 0.19980
 H74 H 1.10394 0.16844 0.18526
 H75 H 0.96546 -0.08066 0.16160
 H76 H 0.91057 -0.14197 0.17950
 H77 H 0.97972 -0.05913 0.21892
 H78 H 1.03209 0.00038 0.20028
 C79 C 0.92743 0.02283 0.13553
 C80 C 1.12819 -0.00964 0.13196
 C81 C 0.94057 -0.10540 0.20071
 C82 C 1.14070 0.13557 0.19376
 C83 C 0.05588 0.95874 0.85394
 H84 H 0.02515 0.92617 0.85436
 C85 C 0.09383 0.96430 0.86213
 H86 H 0.09189 0.93592 0.86904
 C87 C 0.09536 1.03526 0.84440
 H88 H 0.09587 1.06253 0.83726
 C89 C 0.13418 1.04245 0.85256
 H90 H 0.16445 1.07540 0.85168
 N91 N 0.05721 0.99390 0.84532
 C92 C -0.08278 0.96049 0.84266
 H93 H -0.08911 0.95730 0.83010
 C94 C -0.11542 0.95831 0.85269
 H95 H -0.14618 0.95397 0.84738
 C96 C -0.03271 0.97440 0.86409
 H97 H -0.00014 0.98151 0.86849
 C98 C -0.06413 0.97272 0.87453
 H99 H -0.05523 0.97646 0.88690
 Zn100 Zn 0.00379 0.97994 0.83414
 N101 N -0.04223 0.96887 0.84845
 C102 C -0.05168 0.88977 0.82348
 N103 N -0.01098 0.92867 0.82260
 C104 C 0.02303 0.93243 0.81369
 C105 C 0.01690 0.89632 0.80512
 C106 C -0.05942 0.85273 0.81495
 C107 C 0.01950 1.06729 0.82632
 C108 C 0.01948 1.10140 0.81655
 C109 C 0.00411 1.05477 0.79428
 C110 C 0.00442 1.02163 0.80444
 N111 N 0.01161 1.02820 0.82016
 H112 H -0.07800 0.88726 0.83085
 H113 H 0.05513 0.96368 0.81331
 H114 H 0.04433 0.90024 0.79798
 H115 H -0.09182 0.82183 0.81580
 H116 H 0.02415 1.07124 0.83891
 H117 H 0.02424 1.13162 0.82174
 H118 H -0.00218 1.04865 0.78183
 H119 H -0.00268 0.99006 0.79979
 C120 C -0.10615 0.96567 0.86894
 C121 C 0.13370 1.00651 0.86147
 C122 C 0.01082 1.09493 0.80034
 C123 C -0.02468 0.85576 0.80571
 C124 C 0.39532 -0.01601 -0.01203
 C125 C 0.39227 -0.01907 0.00412
 C126 C 0.43484 -0.00692 0.00987
 N127 N 0.46370 0.00328 -0.00222
 C128 C 0.43956 -0.00242 -0.01561
 C129 C 0.44713 -0.00245 0.02599
 C130 C 0.48937 0.00496 0.03151
 C131 C 0.50678 0.01928 0.04639
 C132 C 0.54709 0.02005 0.04740
 C133 C 0.55329 0.00631 0.03308
 N134 N 0.51778 -0.00312 0.02351
 C135 C 0.58938 -0.00034 0.02963
 C136 C 0.59889 -0.00752 0.01432
 C137 C 0.63004 -0.02004 0.01089
 C138 C 0.63109 -0.02075 -0.00524
 C139 C 0.60109 -0.00793 -0.01114
 N140 N 0.58153 0.00023 0.00084
 C141 C 0.59449 -0.00096 -0.02735
 C142 C 0.56117 0.00883 -0.03293
 C143 C 0.56046 0.02664 -0.04793
 C144 C 0.52193 0.02928 -0.04892
 C145 C 0.50004 0.01278 -0.03453
 N146 N 0.52413 0.00027 -0.02486
 C147 C 0.45751 0.00707 -0.03102
 H148 H 0.36808 -0.02299 -0.02020
 H149 H 0.36219 -0.02882 0.01084
 H150 H 0.51343 -0.01778 -0.01410
 H151 H 0.49188 0.02801 0.05562
 H152 H 0.56898 0.02913 0.05761
 H153 H 0.65017 -0.02763 0.01910
 H154 H 0.65206 -0.02917 -0.01183
 H155 H 0.51110 0.04158 -0.05914
 H156 H 0.51080 -0.01906 0.01289
 H157 H 0.58514 0.03669 -0.05720
 C158 C -0.02126 0.37541 0.65749
 C159 C -0.01818 0.37349 0.67363
 C160 C -0.03085 0.40271 0.67910
 N161 N -0.04145 0.42246 0.66685
 C162 C -0.03542 0.40597 0.65363
 C163 C -0.03535 0.40846 0.69518
 C164 C -0.04387 0.44185 0.70030
 C165 C -0.05898 0.44212 0.71524
 C166 C -0.06094 0.48102 0.71574
 C167 C -0.04674 0.50355 0.70110
 N168 N -0.03629 0.47948 0.69178
 C169 C -0.04106 0.54661 0.69708
 C170 C -0.03413 0.56529 0.68146
 C171 C -0.02092 0.60988 0.67735
 C172 C -0.02032 0.61370 0.66118
 C173 C -0.03350 0.57122 0.65594
 N174 N -0.04200 0.54167 0.66837
 C175 C -0.04027 0.55966 0.63996
 C176 C -0.04926 0.51728 0.63501
 C177 C -0.06663 0.50032 0.62038
 C178 C -0.06827 0.45957 0.61992
 C179 C -0.05163 0.45288 0.63426
 N180 N -0.04002 0.48828 0.64337
 C181 C -0.04499 0.41615 0.63817
 H182 H -0.01393 0.35647 0.64951
 H183 H -0.00808 0.35268 0.68054
 H184 H -0.02209 0.49480 0.65389
 H185 H -0.06760 0.41696 0.72481
 H186 H -0.07124 0.49169 0.72579
 H187 H -0.01256 0.63687 0.68519
 H188 H -0.01148 0.64422 0.65410
 H189 H -0.07999 0.43760 0.61008
 H190 H -0.02006 0.49052 0.68093
 H191 H -0.07697 0.51574 0.61100
 C192 C 0.40224 0.37821 0.34014
 C193 C 0.40589 0.38038 0.32402
 C194 C 0.43755 0.42470 0.31969
 N195 N 0.45310 0.44974 0.33258
 C196 C 0.43151 0.42139 0.34510
 C197 C 0.44916 0.44202 0.30398
 C198 C 0.48707 0.48468 0.29998
 C199 C 0.49552 0.50611 0.28509
 C200 C 0.53667 0.54523 0.28585
 C201 C 0.55209 0.54675 0.30120
 N202 N 0.52183 0.50960 0.30971
 C203 C 0.59400 0.58101 0.30682
 C204 C 0.60363 0.58827 0.32305
 C205 C 0.64540 0.61854 0.32918
 C206 C 0.63947 0.61867 0.34509
 C207 C 0.59435 0.58824 0.34816
 N208 N 0.57248 0.56975 0.33467
 C209 C 0.57341 0.58063 0.36299
 C210 C 0.52993 0.54357 0.36647
 C211 C 0.50507 0.53874 0.37978
 C212 C 0.46620 0.49729 0.37924
 C213 C 0.46819 0.47814 0.36555
 N214 N 0.50725 0.50637 0.35790
 C215 C 0.43512 0.43487 0.36076
 H216 H 0.38005 0.34839 0.34734
 H217 H 0.38722 0.35258 0.31635
 H218 H 0.51965 0.49858 0.34827
 H219 H 0.47437 0.49468 0.27471
 H220 H 0.55327 0.56982 0.27620
 H221 H 0.67677 0.63890 0.32284
 H222 H 0.66534 0.63904 0.35344
 H223 H 0.43939 0.48302 0.38789
 H224 H 0.52690 0.49961 0.32100
 H225 H 0.51401 0.56248 0.38897
 C226 C -0.05588 0.20738 0.55868
 C227 C -0.09002 0.16158 0.55909
 C228 C -0.08745 0.13116 0.54948
 C229 C -0.05059 0.14585 0.53933
 C230 C -0.01711 0.19180 0.53862
 C231 C -0.01975 0.22221 0.54815
 C232 C -0.05691 0.23922 0.56954
 N233 N -0.02413 0.28351 0.56897
 N234 N -0.02380 0.31178 0.57917
 C235 C -0.05621 0.29700 0.59040
 N236 N -0.08922 0.25278 0.59090
 N237 N -0.08957 0.22450 0.58069
 C238 C -0.05463 0.32807 0.60220
 C239 C -0.08644 0.31196 0.61448
 C240 C -0.08362 0.34076 0.62602
 C241 C -0.04905 0.38618 0.62549
 C242 C -0.01773 0.40267 0.61313
 C243 C -0.02045 0.37389 0.60158
 H244 H -0.11839 0.14900 0.56704
 H245 H -0.11360 0.09588 0.55034
 H246 H 0.01133 0.20423 0.53072
 H247 H 0.00703 0.25724 0.54744
 H248 H -0.11319 0.27693 0.61533
 H249 H -0.10813 0.32757 0.63549
 H250 H 0.00919 0.43767 0.61257
 H251 H 0.00456 0.38748 0.59229
 C252 C 0.83548 0.79758 0.23201
 C253 C 0.85405 0.84424 0.23354
 C254 C 0.88834 0.87546 0.22348
 C255 C 0.90499 0.86089 0.21160
 C256 C 0.88653 0.81427 0.21003
 C257 C 0.85222 0.78291 0.22017
 C258 C 0.79877 0.76476 0.24271
 N259 N 0.78236 0.71960 0.24217
 N260 N 0.74949 0.69040 0.25189
 C261 C 0.73160 0.70512 0.26252
 N262 N 0.74797 0.75024 0.26301
 N263 N 0.78082 0.77939 0.25333
 C264 C 0.69544 0.67293 0.27352
 C265 C 0.67567 0.68858 0.28386
 C266 C 0.64241 0.65864 0.29452
 C267 C 0.62842 0.61252 0.29513
 C268 C 0.64749 0.59655 0.28470
 C269 C 0.68071 0.62647 0.27398
 H270 H 0.84200 0.85683 0.24249
 H271 H 0.90125 0.91112 0.22481
 H272 H 0.89886 0.80207 0.20103
 H273 H 0.83870 0.74722 0.21866
 H274 H 0.68597 0.72404 0.28379
 H275 H 0.62775 0.67146 0.30240
 H276 H 0.63694 0.56099 0.28500
 H277 H 0.69513 0.61326 0.26617
 C278 C 0.24688 0.01952 -0.11138
 C279 C 0.22212 -0.01745 -0.12095
 C280 C 0.18617 -0.02097 -0.13005
 C281 C 0.17423 0.01247 -0.12987
 C282 C 0.19995 0.05033 -0.12080
 C283 C 0.23583 0.05375 -0.11159
 C284 C 0.28245 0.02106 -0.10071
 N285 N 0.30327 0.05399 -0.09017
 N286 N 0.33329 0.05374 -0.07997
 C287 C 0.34379 0.02058 -0.07987
 N288 N 0.32334 -0.01202 -0.09053
 N289 N 0.29332 -0.01180 -0.10071
 C290 C 0.37522 0.01878 -0.06794
 C291 C 0.38573 -0.01584 -0.06784
 C292 C 0.41316 -0.01914 -0.05602
 C293 C 0.43056 0.01205 -0.04410
 C294 C 0.42104 0.04721 -0.04434
 C295 C 0.39366 0.05059 -0.05615
 H296 H 0.22979 -0.04431 -0.12116
 H297 H 0.16736 -0.05017 -0.13714
 H298 H 0.19133 0.07648 -0.12039
 H299 H 0.25429 0.08277 -0.10441
 H300 H 0.37221 -0.04085 -0.07674
 H301 H 0.42019 -0.04649 -0.05599
 H302 H 0.43435 0.07163 -0.03523
 H303 H 0.38636 0.07769 -0.05586
 C304 C -0.02125 0.80091 0.56384
 C305 C -0.04882 0.81934 0.56612
 C306 C -0.04509 0.85492 0.55626
 C307 C -0.01375 0.87299 0.54384
 C308 C 0.01368 0.85447 0.54145
 C309 C 0.01008 0.81888 0.55138
 C310 C -0.02524 0.76337 0.57451
 N311 N 0.00303 0.74701 0.57316
 N312 N -0.00032 0.71377 0.58296
 C313 C -0.03213 0.69543 0.59449
 N314 N -0.06048 0.71168 0.59577
 N315 N -0.05710 0.74490 0.58600
 C316 C -0.03530 0.65924 0.60569
 C317 C -0.06910 0.63983 0.61733
 C318 C -0.07115 0.60698 0.62829
 C319 C -0.03938 0.59303 0.62787
 C320 C -0.00615 0.61157 0.61610
 C321 C -0.00411 0.64438 0.60510
 H322 H -0.07340 0.80634 0.57555
 H323 H -0.06730 0.86788 0.55823
 H324 H 0.03829 0.86787 0.53202
 H325 H 0.03186 0.80549 0.54929
 H326 H -0.09380 0.65026 0.61810
 H327 H -0.09721 0.59277 0.63723
 H328 H 0.01858 0.60108 0.61561
 H329 H 0.02227 0.65850 0.59629
 C330 C 0.23744 0.24114 0.22274
 C331 C 0.25102 0.21886 0.21278
 C332 C 0.21983 0.18548 0.20309
 C333 C 0.17433 0.17361 0.20309
 C334 C 0.16094 0.19686 0.21263
 C335 C 0.19215 0.23022 0.22238
 C336 C 0.26994 0.27413 0.23387
 N337 N 0.25647 0.29373 0.24422
 N338 N 0.28520 0.32173 0.25470
 C339 C 0.32864 0.33134 0.25530
 N340 N 0.34220 0.31204 0.24486
 N341 N 0.31347 0.28403 0.23439
 C342 C 0.36011 0.36105 0.26739
 C343 C 0.40501 0.37065 0.26810
 C344 C 0.43411 0.39730 0.27988
 C345 C 0.41886 0.41478 0.29116
 C346 C 0.37436 0.40581 0.29040
 C347 C 0.34525 0.37923 0.27863
 H348 H 0.28564 0.22657 0.21266
 H349 H 0.23127 0.16863 0.19567
 H350 H 0.12604 0.18820 0.21296
 H351 H 0.18052 0.24677 0.22986
 H352 H 0.41761 0.35725 0.25964
 H353 H 0.46839 0.40392 0.28033
 H354 H 0.36213 0.41921 0.29900
 H355 H 0.31098 0.37260 0.27846
 C356 C 0.80219 -0.02509 -0.10078
 C357 C 0.78645 -0.05076 -0.11425
 C358 C 0.81631 -0.05415 -0.12416
 C359 C 0.86297 -0.03225 -0.12082
 C360 C 0.87819 -0.00702 -0.10708
 C361 C 0.84836 -0.00342 -0.09731
 C362 C 0.77092 -0.02054 -0.09039
 N363 N 0.78712 0.00887 -0.07858
 N364 N 0.75927 0.01302 -0.06917
 C365 C 0.71395 -0.01211 -0.07115
 N366 N 0.69769 -0.04151 -0.08297
 N367 N 0.72558 -0.04558 -0.09242
 C368 C 0.68307 -0.00807 -0.06041
 C369 C 0.63632 -0.03840 -0.06093
 C370 C 0.60755 -0.03566 -0.05032
 C371 C 0.62495 -0.00251 -0.03904
 C372 C 0.67139 0.02853 -0.03874
 C373 C 0.70021 0.02567 -0.04927
 H374 H 0.75097 -0.06819 -0.11722
 H375 H 0.80211 -0.07530 -0.13414
 H376 H 0.91355 0.01212 -0.10409
 H377 H 0.86176 0.01681 -0.08705
 H378 H 0.62198 -0.06474 -0.06935
 H379 H 0.57175 -0.05982 -0.05073
 H380 H 0.68532 0.05459 -0.03020
 H381 H 0.73596 0.04978 -0.04860
 C382 C 0.21883 -0.01653 0.09973
 C383 C 0.19548 0.00599 0.09521
 C384 C 0.16523 0.00702 0.10552
 C385 C 0.15770 -0.01417 0.12067
 C386 C 0.17995 -0.03791 0.12506
 C387 C 0.21019 -0.03912 0.11468
 C388 C 0.25283 -0.01508 0.08901
 N389 N 0.27187 -0.04093 0.09216
 N390 N 0.30298 -0.03876 0.08256
 C391 C 0.31650 -0.01045 0.06947
 N392 N 0.29744 0.01534 0.06635
 N393 N 0.26628 0.01305 0.07590
 C394 C 0.35108 -0.00774 0.05873
 C395 C 0.36965 0.02649 0.04668
 C396 C 0.40140 0.02863 0.03626
 C397 C 0.41490 -0.00364 0.03756
 C398 C 0.39703 -0.03747 0.04970
 C399 C 0.36548 -0.03944 0.06023
 H400 H 0.20081 0.02324 0.08372
 H401 H 0.14786 0.02472 0.10164
 H402 H 0.17508 -0.05433 0.13669
 H403 H 0.22759 -0.05681 0.11853
 H404 H 0.35962 0.05167 0.04525
 H405 H 0.41513 0.05518 0.02704
 H406 H 0.40714 -0.06263 0.05087
 H407 H 0.35187 -0.06620 0.06937
 C408 C 0.75632 0.81638 0.43993
 C409 C 0.78305 0.86116 0.43414
 C410 C 0.81451 0.89432 0.44383
 C411 C 0.82042 0.88412 0.45983
 C412 C 0.79145 0.83908 0.46569
 C413 C 0.76040 0.80587 0.45586
 C414 C 0.72558 0.78075 0.42922
 N415 N 0.70694 0.73624 0.43364
 N416 N 0.68115 0.70435 0.42367
 C417 C 0.67282 0.71563 0.40888
 N418 N 0.69112 0.76011 0.40453
 N419 N 0.71701 0.79196 0.41447
 C420 C 0.64563 0.68043 0.39751
 C421 C 0.63269 0.69223 0.38299
 C422 C 0.60872 0.65962 0.37195
 C423 C 0.59744 0.61461 0.37512
 C424 C 0.60971 0.60246 0.38966
 C425 C 0.63347 0.63505 0.40079
 H426 H 0.78027 0.87069 0.42197
 H427 H 0.83285 0.92827 0.43863
 H428 H 0.79429 0.82776 0.47756
 H429 H 0.74012 0.77161 0.46072
 H430 H 0.64125 0.72675 0.38010
 H431 H 0.59926 0.66955 0.36082
 H432 H 0.60131 0.56786 0.39229
 H433 H 0.64299 0.62483 0.41183
 C434 C -0.00427 0.19165 0.77021
 C435 C -0.03361 0.14498 0.76890
 C436 C -0.02845 0.11383 0.77863
 C437 C 0.00615 0.12849 0.78994
 C438 C 0.03543 0.17513 0.79134
 C439 C 0.03035 0.20640 0.78155
 C440 C -0.00987 0.22445 0.75973
 N441 N 0.01927 0.26963 0.76035
 N442 N 0.01436 0.29884 0.75074
 C443 C -0.01994 0.28412 0.74011
 N444 N -0.04913 0.23897 0.73955
 N445 N -0.04421 0.20980 0.74914
 C446 C -0.02492 0.31635 0.72910
 C447 C -0.06068 0.30057 0.71819
 C448 C -0.06450 0.33058 0.70737
 C449 C -0.03259 0.37689 0.70720
 C450 C 0.00260 0.39299 0.71825
 C451 C 0.00643 0.36300 0.72911
 H452 H -0.06073 0.13233 0.76035
 H453 H -0.05208 0.07815 0.77745
 H454 H 0.06257 0.18742 0.79989
 H455 H 0.05358 0.24210 0.78287
 H456 H -0.08555 0.26495 0.71787
 H457 H -0.09202 0.31767 0.69897
 H458 H 0.02746 0.42869 0.71829
 H459 H 0.03429 0.37633 0.73736
 C460 C 0.81687 0.01404 0.10782
 C461 C 0.82756 -0.02036 0.10785
 C462 C 0.86336 -0.01737 0.11689
 C463 C 0.88899 0.01978 0.12626
 C464 C 0.87781 0.05374 0.12657
 C465 C 0.84229 0.05109 0.11733
 C466 C 0.78018 0.01154 0.09759
 N467 N 0.77697 0.04883 0.09404
 N468 N 0.74520 0.04686 0.08421
 C469 C 0.71518 0.00746 0.07760
 N470 N 0.71809 -0.02991 0.08131
 N471 N 0.74996 -0.02788 0.09107
 C472 C 0.68121 0.00554 0.06606
 C473 C 0.64547 -0.03636 0.06142
 C474 C 0.61490 -0.03824 0.04986
 C475 C 0.61983 0.00167 0.04266
 C476 C 0.65488 0.04354 0.04741
 C477 C 0.68518 0.04550 0.05909
 H478 H 0.80875 -0.04932 0.10066
 H479 H 0.87096 -0.04429 0.11661
 H480 H 0.89716 0.08274 0.13370
 H481 H 0.83478 0.07806 0.11760
 H482 H 0.64133 -0.06774 0.06660
 H483 H 0.58796 -0.07079 0.04628
 H484 H 0.65905 0.07462 0.04190
 H485 H 0.71236 0.07828 0.06236
 C486 C 0.19987 0.20832 0.43535
 C487 C 0.15421 0.18975 0.43127
 C488 C 0.12043 0.15858 0.44150
 C489 C 0.13133 0.14523 0.45611
 C490 C 0.17696 0.16302 0.46009
 C491 C 0.21090 0.19426 0.44982
 C492 C 0.23542 0.24257 0.42460
 N493 N 0.27981 0.25910 0.42782
 N494 N 0.31149 0.29012 0.41813
 C495 C 0.30011 0.30601 0.40484
 N496 N 0.25575 0.28948 0.40165
 N497 N 0.22414 0.25846 0.41131
 C498 C 0.33507 0.34023 0.39392
 C499 C 0.32269 0.35815 0.38071
 C500 C 0.35527 0.38940 0.37012
 C501 C 0.40083 0.40318 0.37245
 C502 C 0.41355 0.38612 0.38574
 C503 C 0.38096 0.35491 0.39639
 H504 H 0.14440 0.19940 0.42018
 H505 H 0.08561 0.14482 0.43794
 H506 H 0.18642 0.15364 0.47132
 H507 H 0.24573 0.20787 0.45333
 H508 H 0.28776 0.34788 0.37847
 H509 H 0.34493 0.40253 0.35998
 H510 H 0.44864 0.39653 0.38772
 H511 H 0.39169 0.34190 0.40645
 C512 C -0.03995 0.74845 0.77748
 C513 C -0.00144 0.77228 0.78687
 C514 C 0.00290 0.80628 0.79631
 C515 C -0.03123 0.81717 0.79664
 C516 C -0.07048 0.79235 0.78771
 C517 C -0.07475 0.75842 0.77818
 C518 C -0.04273 0.71486 0.76655
 N519 N -0.07742 0.69513 0.75619
 N520 N -0.07857 0.66675 0.74584
 C521 C -0.04510 0.65687 0.74543
 N522 N -0.01066 0.67626 0.75590
 N523 N -0.00949 0.70466 0.76622
 C524 C -0.04522 0.62693 0.73347
 C525 C -0.01070 0.61642 0.73324
 C526 C -0.00968 0.58986 0.72155
 C527 C -0.04308 0.57337 0.70986
 C528 C -0.07794 0.58314 0.71014
 C529 C -0.07905 0.60963 0.72185
 H530 H 0.02592 0.76538 0.78672
 H531 H 0.03323 0.82440 0.80326
 H532 H -0.09721 0.80022 0.78769
 H533 H -0.10495 0.74062 0.77114
 H534 H 0.01587 0.62909 0.74200
 H535 H 0.01747 0.58262 0.72147
 H536 H -0.10404 0.57053 0.70121
 H537 H -0.10611 0.61702 0.72165
   
