data_POSCAR
  _audit_creation_date              2014-09-24
  _audit_creation_method            'ToBaCCo'
  _symmetry_space_group_name_H-M    'P1'
  _symmetry_Int_Tables_number       1
  _symmetry_cell_setting            triclinic
  loop_
  _symmetry_equiv_pos_as_xyz
 x,y,z
_cell_length_a 27.4862
_cell_length_b 27.0587
_cell_length_c 49.2169
_cell_angle_alpha 89.978500
_cell_angle_beta 91.860500
_cell_angle_gamma 89.919700
loop_
  _atom_site_label
  _atom_site_type_symbol
  _atom_site_fract_x
  _atom_site_fract_y
  _atom_site_fract_z
C1 C -0.00075 0.63259 1.00019
 C2 C 0.00519 0.60669 1.02461
 C3 C 0.00634 0.55492 1.02452
 C4 C -0.00091 0.52821 1.00002
 C5 C -0.00810 0.55525 0.97562
 C6 C -0.00677 0.60700 0.97568
 C7 C -0.00094 0.47270 0.99993
 C8 C 0.01017 0.44593 0.97622
 C9 C 0.00896 0.39422 0.97604
 C10 C -0.00092 0.36837 0.99975
 C11 C -0.01081 0.39394 1.02355
 C12 C -0.01203 0.44566 1.02354
 H13 H -0.00066 0.67275 1.00025
 H14 H 0.01324 0.53601 1.04363
 H15 H -0.01507 0.53659 0.95645
 H16 H 0.02012 0.46467 0.95781
 H17 H -0.00090 0.32826 0.99969
 H18 H -0.02197 0.46420 1.04202
 C19 C 0.37151 0.00608 0.50162
 C20 C 0.39918 0.01293 0.52557
 C21 C 0.45004 0.01443 0.52489
 C22 C 0.47425 0.00630 0.50033
 C23 C 0.44533 -0.00190 0.47643
 C24 C 0.39445 -0.00066 0.47703
 C25 C 0.52897 0.00613 0.49966
 C26 C 0.55318 0.01422 0.47510
 C27 C 0.60407 0.01237 0.47439
 C28 C 0.63175 0.00526 0.49836
 C29 C 0.60878 -0.00140 0.52297
 C30 C 0.55785 -0.00234 0.52355
 H31 H 0.33207 0.00585 0.50212
 H32 H 0.47003 0.02213 0.54367
 H33 H 0.46163 -0.00969 0.45721
 H34 H 0.53306 0.02216 0.45637
 H35 H 0.67123 0.00480 0.49785
 H36 H 0.54138 -0.01010 0.54274
 C37 C 0.08398 0.00231 0.26553
 H38 H 0.08773 0.00205 0.24372
 C39 C 0.12545 0.00262 0.28276
 H40 H 0.16130 0.00252 0.27425
 C41 C 0.03280 0.00234 0.30341
 H42 H -0.00322 0.00274 0.31148
 C43 C 0.07321 0.00271 0.32131
 H44 H 0.06808 0.00283 0.34304
 N45 N 0.03879 0.00093 0.27607
 C46 C -0.05330 -0.07301 0.21462
 H47 H -0.08394 -0.04786 0.21354
 C48 C -0.05205 -0.11369 0.19721
 H49 H -0.08177 -0.11992 0.18262
 C50 C 0.02387 -0.09457 0.23413
 H51 H 0.05343 -0.08710 0.24849
 C52 C 0.02655 -0.13569 0.21709
 H53 H 0.05844 -0.15929 0.21816
 Zn54 Zn -0.01619 -0.00322 0.25185
 N55 N -0.01492 -0.06328 0.23196
 C56 C -0.01312 0.04301 0.20028
 N57 N -0.01427 0.05122 0.22754
 C58 C -0.01385 0.09800 0.23777
 C59 C -0.01479 0.13876 0.22026
 C60 C -0.01397 0.08259 0.18212
 C61 C -0.08235 -0.04043 0.28877
 C62 C -0.12234 -0.03977 0.30556
 C63 C -0.14666 0.03851 0.28572
 C64 C -0.10622 0.03639 0.26928
 N65 N -0.07427 -0.00201 0.27165
 H66 H -0.01182 0.00583 0.19245
 H67 H -0.01378 0.10356 0.25954
 H68 H -0.01555 0.17587 0.22849
 H69 H -0.01395 0.07561 0.16044
 H70 H -0.05675 -0.07082 0.28998
 H71 H -0.12760 -0.06969 0.31980
 H72 H -0.17108 0.06994 0.28435
 H73 H -0.10004 0.06593 0.25508
 C74 C -0.01129 -0.14471 0.19809
 C75 C 0.11991 0.00221 0.31090
 C76 C -0.15430 0.00047 0.30432
 C77 C -0.01542 0.13083 0.19217
 C78 C 0.01304 0.09851 0.76185
 H79 H 0.01324 0.10389 0.74007
 C80 C 0.01379 0.13942 0.77925
 H81 H 0.01467 0.17645 0.77091
 C82 C 0.01192 0.04384 0.79949
 H83 H 0.01054 0.00672 0.80742
 C84 C 0.01256 0.08356 0.81753
 H85 H 0.01232 0.07676 0.83922
 N86 N 0.01338 0.05181 0.77222
 C87 C 0.08259 -0.04034 0.71154
 H88 H 0.05711 -0.07076 0.71029
 C89 C 0.12279 -0.03974 0.69491
 H90 H 0.12834 -0.06973 0.68076
 C91 C 0.10594 0.03661 0.73095
 H92 H 0.09948 0.06622 0.74506
 C93 C 0.14658 0.03867 0.71467
 H94 H 0.17088 0.07013 0.71607
 Zn95 Zn 0.01577 -0.00288 0.74810
 N96 N 0.07414 -0.00182 0.72854
 C97 C -0.03262 0.00208 0.69633
 N98 N -0.03894 0.00100 0.72365
 C99 C -0.08427 0.00246 0.73401
 C100 C -0.12554 0.00253 0.71663
 C101 C -0.07283 0.00221 0.67829
 C102 C 0.05265 -0.07225 0.78572
 C103 C 0.05133 -0.11276 0.80327
 C104 C -0.02693 -0.13505 0.78313
 C105 C -0.02418 -0.09409 0.76597
 N106 N 0.01446 -0.06273 0.76819
 H107 H 0.00350 0.00241 0.68840
 H108 H -0.08829 0.00244 0.75580
 H109 H -0.16150 0.00252 0.72500
 H110 H -0.06743 0.00207 0.65658
 H111 H 0.08319 -0.04706 0.78685
 H112 H 0.08088 -0.11882 0.81800
 H113 H -0.05870 -0.15871 0.78200
 H114 H -0.05358 -0.08679 0.75146
 C115 C 0.15460 0.00054 0.69618
 C116 C 0.01413 0.13171 0.80736
 C117 C 0.01070 -0.14384 0.80232
 C118 C -0.11966 0.00179 0.68851
 C119 C 0.00423 -0.24714 0.13783
 C120 C -0.01027 -0.29709 0.14023
 C121 C -0.00695 -0.32951 0.11762
 C122 C 0.01078 -0.31173 0.09277
 C123 C 0.02673 -0.26218 0.09064
 C124 C 0.02346 -0.22981 0.11323
 C125 C 0.03929 -0.18031 0.11052
 C126 C 0.05778 -0.16332 0.08621
 C127 C 0.06093 -0.19498 0.06411
 C128 C 0.04563 -0.24387 0.06618
 C129 C -0.02197 -0.37919 0.12042
 C130 C -0.03971 -0.39640 0.14488
 C131 C -0.04296 -0.36471 0.16698
 C132 C -0.02849 -0.31555 0.16479
 C133 C 0.01018 -0.34327 0.06890
 C134 C 0.00851 -0.36769 0.04841
 C135 C -0.00174 -0.21296 0.16023
 C136 C -0.00645 -0.18283 0.17800
 H137 H 0.03766 -0.15424 0.12713
 H138 H 0.06974 -0.12538 0.08451
 H139 H 0.07533 -0.18162 0.04526
 H140 H 0.04894 -0.26708 0.04844
 H141 H -0.01999 -0.40522 0.10380
 H142 H -0.05098 -0.43455 0.14670
 H143 H -0.05677 -0.37827 0.18593
 H144 H -0.03162 -0.29228 0.18253
 C145 C -0.02588 0.24040 0.13497
 C146 C -0.04808 0.22732 0.10962
 C147 C -0.04868 0.26156 0.08772
 C148 C -0.02708 0.30868 0.09128
 C149 C -0.00672 0.32251 0.11695
 C150 C -0.00609 0.28824 0.13888
 C151 C 0.01491 0.30267 0.16427
 C152 C 0.03465 0.34971 0.16792
 C153 C 0.03402 0.38323 0.14650
 C154 C 0.01367 0.36997 0.12124
 C155 C -0.07059 0.24744 0.06246
 C156 C -0.09138 0.20085 0.05897
 C157 C -0.09081 0.16736 0.08038
 C158 C -0.06945 0.18022 0.10545
 C159 C -0.02296 0.34129 0.06804
 C160 C -0.01824 0.36643 0.04808
 C161 C -0.02181 0.20373 0.15648
 C162 C -0.01859 0.17148 0.17335
 H163 H 0.01612 0.27786 0.18153
 H164 H 0.05050 0.36021 0.18750
 H165 H 0.04937 0.41973 0.14945
 H166 H 0.01387 0.39731 0.10519
 H167 H -0.07208 0.27226 0.04521
 H168 H -0.10803 0.19070 0.03954
 H169 H -0.10702 0.13121 0.07758
 H170 H -0.07004 0.15289 0.12149
 C171 C 0.26119 0.01177 0.64032
 C172 C 0.26536 0.05630 0.62545
 C173 C 0.29727 0.05879 0.60333
 C174 C 0.32484 0.01678 0.59625
 C175 C 0.32241 -0.02697 0.61195
 C176 C 0.29045 -0.02950 0.63404
 C177 C 0.28814 -0.07384 0.64920
 C178 C 0.31669 -0.11452 0.64276
 C179 C 0.34799 -0.11205 0.62118
 C180 C 0.35093 -0.06889 0.60586
 C181 C 0.30036 0.10347 0.58853
 C182 C 0.27278 0.14458 0.59543
 C183 C 0.24159 0.14216 0.61706
 C184 C 0.23774 0.09861 0.63196
 C185 C 0.35302 0.01732 0.57180
 C186 C 0.37490 0.01630 0.55097
 C187 C 0.22487 0.00758 0.66098
 C188 C 0.19349 0.00415 0.67743
 H189 H 0.26443 -0.07747 0.66621
 H190 H 0.31454 -0.14813 0.65459
 H191 H 0.37012 -0.14373 0.61627
 H192 H 0.37592 -0.06869 0.58932
 H193 H 0.32424 0.10715 0.57160
 H194 H 0.27565 0.17850 0.58393
 H195 H 0.22027 0.17421 0.62235
 H196 H 0.21309 0.09856 0.64866
 C197 C -0.23403 -0.00704 0.63334
 C198 C -0.26976 0.03059 0.63110
 C199 C -0.30541 0.02925 0.60953
 C200 C -0.30506 -0.00969 0.59032
 C201 C -0.27065 -0.04844 0.59326
 C202 C -0.23503 -0.04713 0.61484
 C203 C -0.20066 -0.08604 0.61718
 C204 C -0.20151 -0.12515 0.59875
 C205 C -0.23634 -0.12641 0.57765
 C206 C -0.27059 -0.08858 0.57483
 C207 C -0.34047 0.06755 0.60754
 C208 C -0.34034 0.10605 0.62634
 C209 C -0.30546 0.10736 0.64743
 C210 C -0.27046 0.07018 0.64987
 C211 C -0.33785 -0.00815 0.56660
 C212 C -0.36364 -0.00569 0.54635
 C213 C -0.19484 -0.00341 0.65376
 C214 C -0.16117 -0.00068 0.67000
 H215 H -0.17292 -0.08677 0.63329
 H216 H -0.17500 -0.15463 0.60087
 H217 H -0.23686 -0.15688 0.56340
 H218 H -0.29706 -0.09126 0.55813
 H219 H -0.36841 0.06803 0.59153
 H220 H -0.36747 0.13501 0.62455
 H221 H -0.30553 0.13734 0.66198
 H222 H -0.24413 0.07270 0.66664
 C223 C -0.00497 -0.24598 0.86274
 C224 C -0.02283 -0.22823 0.88760
 C225 C -0.02625 -0.26067 0.91016
 C226 C -0.01183 -0.31069 0.90775
 C227 C 0.00459 -0.32882 0.88267
 C228 C 0.00806 -0.29634 0.86009
 C229 C 0.02494 -0.31518 0.83529
 C230 C 0.03795 -0.36475 0.83285
 C231 C 0.03453 -0.39651 0.85492
 C232 C 0.01810 -0.37893 0.87961
 C233 C -0.04379 -0.24195 0.93487
 C234 C -0.05762 -0.19262 0.93721
 C235 C -0.05431 -0.16090 0.91514
 C236 C -0.03713 -0.17827 0.89059
 C237 C -0.01145 -0.34246 0.93154
 C238 C -0.00995 -0.36709 0.95196
 C239 C 0.00104 -0.21187 0.84031
 C240 C 0.00578 -0.18183 0.82249
 H241 H 0.02815 -0.29188 0.81757
 H242 H 0.05074 -0.37859 0.81371
 H243 H 0.04465 -0.43498 0.85290
 H244 H 0.01594 -0.40503 0.89620
 H245 H -0.04717 -0.26519 0.95261
 H246 H -0.07098 -0.17896 0.95625
 H247 H -0.06511 -0.12260 0.91705
 H248 H -0.03531 -0.15213 0.87401
 C249 C 0.02443 0.24146 0.86438
 C250 C 0.00409 0.28915 0.86059
 C251 C 0.00467 0.32336 0.88253
 C252 C 0.02552 0.30961 0.90811
 C253 C 0.04769 0.26267 0.91156
 C254 C 0.04714 0.22849 0.88964
 C255 C 0.06906 0.18155 0.89370
 C256 C 0.09090 0.16878 0.91867
 C257 C 0.09142 0.20222 0.94010
 C258 C 0.07011 0.24865 0.93671
 C259 C -0.01627 0.37066 0.87835
 C260 C -0.03713 0.38384 0.85319
 C261 C -0.03772 0.35038 0.83174
 C262 C -0.01743 0.30348 0.83529
 C263 C 0.02128 0.34205 0.93140
 C264 C 0.01648 0.36698 0.95143
 C265 C 0.02038 0.20480 0.84289
 C266 C 0.01721 0.17249 0.82607
 H267 H 0.06969 0.15427 0.87764
 H268 H 0.10751 0.13275 0.92140
 H269 H 0.10846 0.19214 0.95946
 H270 H 0.07160 0.27343 0.95397
 H271 H -0.01652 0.39795 0.89442
 H272 H -0.05291 0.42022 0.85031
 H273 H -0.05398 0.36080 0.81225
 H274 H -0.01864 0.27871 0.81802
 C275 C -0.26025 0.01157 0.36058
 C276 C -0.26424 0.05595 0.37559
 C277 C -0.29591 0.05832 0.39782
 C278 C -0.32342 0.01632 0.40488
 C279 C -0.32117 -0.02728 0.38906
 C280 C -0.28944 -0.02968 0.36685
 C281 C -0.28728 -0.07388 0.35157
 C282 C -0.31575 -0.11455 0.35801
 C283 C -0.34682 -0.11220 0.37970
 C284 C -0.34962 -0.06918 0.39513
 C285 C -0.29881 0.10284 0.41277
 C286 C -0.27127 0.14393 0.40590
 C287 C -0.24032 0.14164 0.38415
 C288 C -0.23667 0.09825 0.36911
 C289 C -0.35134 0.01670 0.42942
 C290 C -0.37302 0.01554 0.45032
 C291 C -0.22418 0.00750 0.33978
 C292 C -0.19298 0.00411 0.32321
 H293 H -0.26375 -0.07741 0.33447
 H294 H -0.31371 -0.14805 0.34608
 H295 H -0.36889 -0.14388 0.38460
 H296 H -0.37443 -0.06908 0.41176
 H297 H -0.32249 0.10641 0.42980
 H298 H -0.27398 0.17773 0.41752
 H299 H -0.21901 0.17367 0.37890
 H300 H -0.21219 0.09829 0.35233
 C301 C 0.23491 -0.00603 0.36570
 C302 C 0.23713 -0.04683 0.38374
 C303 C 0.27295 -0.04811 0.40522
 C304 C 0.30632 -0.00861 0.40853
 C305 C 0.30543 0.03113 0.38979
 C306 C 0.26959 0.03243 0.36831
 C307 C 0.26903 0.07280 0.35002
 C308 C 0.30299 0.11081 0.35283
 C309 C 0.33804 0.10954 0.37383
 C310 C 0.33940 0.07026 0.39217
 C311 C 0.27411 -0.08898 0.42319
 C312 C 0.24086 -0.12754 0.42001
 C313 C 0.20583 -0.12630 0.39901
 C314 C 0.20379 -0.08649 0.38103
 C315 C 0.33930 -0.00726 0.43217
 C316 C 0.36525 -0.00502 0.45235
 C317 C 0.19549 -0.00259 0.34541
 C318 C 0.16163 -0.00003 0.32927
 H319 H 0.24252 0.07533 0.33333
 H320 H 0.30209 0.14139 0.33864
 H321 H 0.36435 0.13914 0.37592
 H322 H 0.36744 0.07082 0.40812
 H323 H 0.30078 -0.09167 0.43978
 H324 H 0.24230 -0.15855 0.43391
 H325 H 0.18008 -0.15635 0.39662
 H326 H 0.17595 -0.08726 0.36498
   
