data_POSCAR
  _audit_creation_date              2014-09-24
  _audit_creation_method            'ToBaCCo'
  _symmetry_space_group_name_H-M    'P1'
  _symmetry_Int_Tables_number       1
  _symmetry_cell_setting            triclinic
  loop_
  _symmetry_equiv_pos_as_xyz
 x,y,z
_cell_length_a 45.1844
_cell_length_b 28.5802
_cell_length_c 15.6734
_cell_angle_alpha 90.000600
_cell_angle_beta 89.999300
_cell_angle_gamma 89.999000
loop_
  _atom_site_label
  _atom_site_type_symbol
  _atom_site_fract_x
  _atom_site_fract_y
  _atom_site_fract_z
C1 C 0.72658 0.26966 0.54691
 C2 C 0.72672 0.26958 0.45688
 C3 C 0.75057 0.24973 0.41275
 C4 C 0.77437 0.22987 0.45720
 C5 C 0.77425 0.22990 0.54742
 C6 C 0.75035 0.24980 0.59152
 H7 H 0.75026 0.24984 0.66082
 H8 H 0.75056 0.24979 0.34348
 C9 C 0.22680 0.76976 0.54729
 C10 C 0.22667 0.76978 0.45739
 C11 C 0.25036 0.74979 0.41280
 C12 C 0.27417 0.72976 0.45689
 C13 C 0.27431 0.72969 0.54695
 C14 C 0.25058 0.74973 0.59152
 H15 H 0.25058 0.74979 0.66078
 H16 H 0.25026 0.74982 0.34358
 C17 C 0.27301 0.26926 -0.54538
 C18 C 0.27296 0.26935 -0.45550
 C19 C 0.24915 0.24961 -0.41099
 C20 C 0.22529 0.22971 -0.45518
 C21 C 0.22534 0.22962 -0.54542
 C22 C 0.24922 0.24941 -0.58974
 H23 H 0.24934 0.24941 -0.65900
 H24 H 0.24925 0.24979 -0.34174
 C25 C -0.22712 0.76958 -0.54528
 C26 C -0.22706 0.76948 -0.45540
 C27 C -0.25076 0.74937 -0.41104
 C28 C -0.27456 0.72932 -0.45537
 C29 C -0.27461 0.72942 -0.54560
 C30 C -0.25084 0.74960 -0.58979
 H31 H -0.25075 0.74978 -0.65905
 H32 H -0.25064 0.74936 -0.34178
 N33 N -0.03138 0.91781 -0.09108
 N34 N -0.05336 0.88809 -0.10345
 N35 N 0.03089 0.95037 -0.15021
 N36 N 0.05292 0.94386 -0.20422
 N37 N 0.03090 0.91784 -0.09102
 N38 N 0.05295 0.88825 -0.10306
 N39 N -0.03137 0.95037 -0.15025
 N40 N -0.05331 0.94373 -0.20453
 C41 C -0.06678 0.90490 -0.17421
 C42 C 0.06641 0.90512 -0.17368
 N43 N 0.03094 1.08373 -0.09111
 N44 N 0.05292 1.11344 -0.10351
 N45 N -0.03134 1.05117 -0.15019
 N46 N -0.05336 1.05769 -0.20422
 N47 N -0.03135 1.08371 -0.09102
 N48 N -0.05339 1.11331 -0.10310
 N49 N 0.03092 1.05117 -0.15027
 N50 N 0.05286 1.05779 -0.20456
 Mn51 Mn -0.00022 1.00077 -0.15119
 C52 C 0.06634 1.09661 -0.17428
 C53 C -0.06685 1.09644 -0.17371
 N54 N 0.03095 0.91782 0.09286
 N55 N 0.05291 0.88809 0.10528
 N56 N -0.03132 0.95038 0.15197
 N57 N -0.05333 0.94385 0.20604
 N58 N -0.03134 0.91784 0.09279
 N59 N -0.05337 0.88822 0.10490
 N60 N 0.03093 0.95038 0.15201
 N61 N 0.05286 0.94374 0.20633
 Mn62 Mn -0.00022 0.91727 0.00089
 C63 C 0.06633 0.90491 0.17606
 C64 C -0.06682 0.90509 0.17554
 N65 N -0.03138 1.08373 0.09288
 N66 N -0.05335 1.11347 0.10535
 N67 N 0.03089 1.05116 0.15196
 N68 N 0.05290 1.05769 0.20603
 N69 N 0.03090 1.08371 0.09279
 N70 N 0.05294 1.11332 0.10492
 N71 N -0.03136 1.05117 0.15202
 N72 N -0.05328 1.05780 0.20637
 Mn73 Mn -0.00022 1.08428 0.00088
 Mn74 Mn -0.00022 1.00077 0.15295
 Cl75 Cl -0.00022 1.00077 0.00088
 C76 C -0.06675 1.09664 0.17614
 C77 C 0.06639 1.09644 0.17555
 N78 N 0.46914 0.44886 0.14945
 N79 N 0.44718 0.44227 0.20369
 N80 N 0.53141 0.41630 0.09027
 N81 N 0.55341 0.38664 0.10254
 N82 N 0.53139 0.44886 0.14942
 N83 N 0.55336 0.44230 0.20361
 N84 N 0.46912 0.41630 0.09030
 N85 N 0.44713 0.38662 0.10264
 C86 C 0.43369 0.40346 0.17338
 C87 C 0.56683 0.40352 0.17323
 N88 N 0.53145 0.44884 -0.15280
 N89 N 0.55345 0.44227 -0.20693
 N90 N 0.46918 0.41631 -0.09359
 N91 N 0.44713 0.38673 -0.10566
 N92 N 0.46919 0.44886 -0.15276
 N93 N 0.44717 0.44236 -0.20679
 N94 N 0.53147 0.41629 -0.09362
 N95 N 0.55349 0.38664 -0.10583
 Mn96 Mn 0.50030 0.41574 -0.00166
 C97 C 0.56695 0.40348 -0.17653
 C98 C 0.43367 0.40362 -0.17628
 N99 N 0.53145 0.54964 0.14946
 N100 N 0.55337 0.55630 0.20380
 N101 N 0.46919 0.58219 0.09026
 N102 N 0.44720 0.61188 0.10255
 N103 N 0.46920 0.54964 0.14942
 N104 N 0.44725 0.55622 0.20363
 N105 N 0.53147 0.58220 0.09030
 N106 N 0.55343 0.61194 0.10273
 Mn107 Mn 0.50030 0.49925 0.15039
 C108 C 0.56684 0.59513 0.17352
 C109 C 0.43378 0.59502 0.17325
 N110 N 0.46914 0.54966 -0.15280
 N111 N 0.44716 0.55626 -0.20696
 N112 N 0.53142 0.58218 -0.09358
 N113 N 0.55343 0.61182 -0.10574
 N114 N 0.53140 0.54964 -0.15276
 N115 N 0.55339 0.55620 -0.20688
 N116 N 0.46913 0.58221 -0.09361
 N117 N 0.44713 0.61188 -0.10585
 Mn118 Mn 0.50030 0.49925 -0.15375
 Mn119 Mn 0.50030 0.58275 -0.00166
 Cl120 Cl 0.50030 0.49925 -0.00168
 C121 C 0.43367 0.59506 -0.17656
 C122 C 0.56687 0.59497 -0.17641
 C123 C 0.29729 0.28938 0.40708
 C124 C 0.31776 0.30638 0.36865
 C125 C 0.34196 0.32649 0.32497
 C126 C 0.36278 0.34385 0.28869
 C127 C 0.38733 0.36438 0.24735
 C128 C 0.40842 0.38210 0.21304
 C129 C -0.20299 0.79004 0.40730
 C130 C -0.18261 0.80731 0.36904
 C131 C -0.15850 0.82771 0.32568
 C132 C -0.13772 0.84527 0.28974
 C133 C -0.11319 0.86598 0.24885
 C134 C -0.09210 0.88377 0.21489
 C135 C 0.70256 0.71018 0.40891
 C136 C 0.68223 0.69302 0.37006
 C137 C 0.65819 0.67271 0.32599
 C138 C 0.63748 0.65519 0.28945
 C139 C 0.61304 0.63448 0.24786
 C140 C 0.59203 0.61662 0.21337
 C141 C 0.20249 1.21054 0.40919
 C142 C 0.18213 1.19352 0.37043
 C143 C 0.15804 1.17338 0.32657
 C144 C 0.13727 1.15600 0.29028
 C145 C 0.11276 1.13545 0.24909
 C146 C 0.09166 1.11774 0.21496
 C147 C 0.70359 0.28886 -0.40838
 C148 C 0.68309 0.30598 -0.37018
 C149 C 0.65886 0.32626 -0.32688
 C150 C 0.63801 0.34373 -0.29096
 C151 C 0.61340 0.36437 -0.25002
 C152 C 0.59227 0.38214 -0.21599
 C153 C 0.20270 0.79014 -0.40506
 C154 C 0.18232 0.80737 -0.36673
 C155 C 0.15820 0.82776 -0.32339
 C156 C 0.13740 0.84533 -0.28753
 C157 C 0.11285 0.86604 -0.24677
 C158 C 0.09172 0.88383 -0.21292
 C159 C 0.29725 0.71034 -0.40833
 C160 C 0.31770 0.69308 -0.37014
 C161 C 0.34188 0.67265 -0.32688
 C162 C 0.36270 0.65506 -0.29099
 C163 C 0.38727 0.63430 -0.25008
 C164 C 0.40838 0.61645 -0.21605
 C165 C -0.20295 1.21079 -0.40700
 C166 C -0.18261 1.19374 -0.36818
 C167 C -0.15854 1.17353 -0.32436
 C168 C -0.13777 1.15609 -0.28815
 C169 C -0.11325 1.13548 -0.24708
 C170 C -0.09214 1.11773 -0.21305
 C171 C 0.70267 0.71000 -0.40998
 C172 C 0.68237 0.69278 -0.37125
 C173 C 0.65835 0.67241 -0.32744
 C174 C 0.63764 0.65486 -0.29119
 C175 C 0.61317 0.63415 -0.25002
 C176 C 0.59211 0.61633 -0.21588
 C177 C 0.20238 1.21070 -0.40969
 C178 C 0.18199 1.19375 -0.37081
 C179 C 0.15788 1.17366 -0.32670
 C180 C 0.13712 1.15631 -0.29014
 C181 C 0.11263 1.13576 -0.24853
 C182 C 0.09157 1.11802 -0.21406
 C183 C 0.29718 0.28954 -0.40807
 C184 C 0.31762 0.30660 -0.36978
 C185 C 0.34180 0.32677 -0.32639
 C186 C 0.36263 0.34415 -0.29041
 C187 C 0.38721 0.36469 -0.24951
 C188 C 0.40835 0.38238 -0.21556
 C189 C -0.20287 0.78985 -0.40787
 C190 C -0.18246 0.80705 -0.36946
 C191 C -0.15833 0.82739 -0.32582
 C192 C -0.13756 0.84492 -0.28958
 C193 C -0.11306 0.86562 -0.24826
 C194 C -0.09201 0.88346 -0.21394
 C195 C 0.29821 0.70951 0.40866
 C196 C 0.31849 0.69243 0.36970
 C197 C 0.34248 0.67223 0.32552
 C198 C 0.36316 0.65480 0.28891
 C199 C 0.38758 0.63419 0.24733
 C200 C 0.40859 0.61641 0.21292
 C201 C -0.20269 1.21079 0.41192
 C202 C -0.18229 1.19381 0.37311
 C203 C -0.15819 1.17371 0.32898
 C204 C -0.13745 1.15637 0.29234
 C205 C -0.11298 1.13582 0.25060
 C206 C -0.09195 1.11807 0.21602
 C207 C 0.70262 0.28967 0.40868
 C208 C 0.68229 0.30662 0.36972
 C209 C 0.65825 0.32667 0.32551
 C210 C 0.63754 0.34398 0.28888
 C211 C 0.61308 0.36447 0.24728
 C212 C 0.59205 0.38218 0.21286
 C213 C 0.20242 0.79013 0.41006
 C214 C 0.18199 0.80728 0.37171
 C215 C 0.15785 0.82756 0.32803
 C216 C 0.13708 0.84502 0.29171
 C217 C 0.11259 0.86567 0.25027
 C218 C 0.09154 0.88347 0.21585
   
