data_POSCAR
  _audit_creation_date              2014-09-24
  _audit_creation_method            'ToBaCCo'
  _symmetry_space_group_name_H-M    'P1'
  _symmetry_Int_Tables_number       1
  _symmetry_cell_setting            triclinic
  loop_
  _symmetry_equiv_pos_as_xyz
 x,y,z
_cell_length_a 30.5559
_cell_length_b 29.7776
_cell_length_c 7.1396
_cell_angle_alpha 90.545800
_cell_angle_beta 92.632500
_cell_angle_gamma 89.759400
loop_
  _atom_site_label
  _atom_site_type_symbol
  _atom_site_fract_x
  _atom_site_fract_y
  _atom_site_fract_z
O1 O 0.20646 0.30756 0.21466
 O2 O 0.28739 0.22000 0.11913
 O3 O 0.20148 0.22673 0.08576
 O4 O 0.29082 0.30027 0.25671
 O5 O 0.28452 0.27705 0.54619
 O6 O 0.19570 0.20213 0.37132
 O7 O 0.28183 0.19637 0.40903
 O8 O 0.19933 0.28351 0.50296
 Cu9 Cu 0.24718 0.26611 0.14118
 Cu10 Cu 0.23973 0.23674 0.48467
 C11 C 0.18864 0.31041 0.37138
 C12 C 0.29939 0.19394 0.25145
 C13 C 0.18192 0.20266 0.20068
 C14 C 0.30273 0.30185 0.42901
 O15 O 0.70317 0.30168 0.20352
 O16 O 0.77695 0.21063 0.05712
 O17 O 0.69686 0.21648 0.15758
 O18 O 0.78628 0.29732 0.10635
 O19 O 0.80359 0.29072 0.40844
 O20 O 0.71815 0.20479 0.45242
 O21 O 0.79912 0.20370 0.35277
 O22 O 0.72184 0.29072 0.50045
 Cu23 Cu 0.73884 0.25803 0.10361
 Cu24 Cu 0.76337 0.24656 0.45621
 C25 C 0.69823 0.31047 0.37532
 C26 C 0.80075 0.19130 0.18291
 C27 C 0.69184 0.19723 0.31269
 C28 C 0.81027 0.30772 0.25032
 O29 O 0.71244 0.77069 0.43358
 O30 O 0.79171 0.69458 0.66329
 O31 O 0.70876 0.69378 0.59526
 O32 O 0.79857 0.77168 0.51689
 O33 O 0.78310 0.80877 0.77475
 O34 O 0.70095 0.72359 0.87665
 O35 O 0.78509 0.73012 0.93303
 O36 O 0.69793 0.79986 0.70859
 Cu37 Cu 0.75385 0.73005 0.52383
 Cu38 Cu 0.74078 0.76944 0.84986
 C39 C 0.68951 0.79621 0.53316
 C40 C 0.80237 0.69934 0.83591
 C41 C 0.69032 0.69469 0.75097
 C42 C 0.80711 0.80260 0.63638
 O43 O 0.29572 0.80244 0.77045
 O44 O 0.20668 0.73097 0.92255
 O45 O 0.29217 0.72236 0.88921
 O46 O 0.21258 0.81326 0.78049
 O47 O 0.19511 0.78058 0.50913
 O48 O 0.28370 0.69933 0.59499
 O49 O 0.19983 0.70058 0.64094
 O50 O 0.28097 0.78141 0.47871
 Cu51 Cu 0.25199 0.76962 0.86967
 Cu52 Cu 0.23886 0.73788 0.52733
 C53 C 0.30294 0.80529 0.59804
 C54 C 0.18910 0.70227 0.81037
 C55 C 0.30287 0.69657 0.75567
 C56 C 0.18943 0.81172 0.62819
 C57 C 0.99161 0.11121 0.06404
 C58 C 1.03221 0.09177 0.03081
 C59 C 1.03458 0.04730 -0.03408
 C60 C 0.99619 0.02139 -0.06888
 C61 C 0.95556 0.04208 -0.03240
 C62 C 0.95333 0.08636 0.03358
 C63 C 0.99779 -0.02430 -0.16269
 C64 C 0.95945 -0.04975 -0.19780
 C65 C 0.95902 -0.08631 -0.32232
 C66 C 0.99644 -0.09542 -0.42223
 C67 C 1.03737 -0.07820 -0.35875
 C68 C 1.03733 -0.04313 -0.22366
 H69 H 0.98981 0.14579 0.11224
 H70 H 1.06669 0.03449 -0.06190
 H71 H 0.92474 0.02523 -0.05882
 H72 H 0.93001 -0.04272 -0.12516
 H73 H 0.99402 -0.12030 -0.53347
 H74 H 1.06798 -0.03199 -0.16036
 C75 C 0.49682 0.60959 0.84692
 C76 C 0.53686 0.58746 0.83490
 C77 C 0.53803 0.54127 0.79952
 C78 C 0.49915 0.51654 0.76363
 C79 C 0.45885 0.54008 0.77243
 C80 C 0.45778 0.58596 0.81764
 C81 C 0.50074 0.46800 0.70186
 C82 C 0.46251 0.44152 0.69190
 C83 C 0.46231 0.39870 0.60910
 C84 C 0.50155 0.37938 0.55413
 C85 C 0.54048 0.40389 0.57197
 C86 C 0.53981 0.44808 0.64085
 H87 H 0.49607 0.64563 0.87032
 H88 H 0.56996 0.52618 0.79202
 H89 H 0.42790 0.52432 0.73533
 H90 H 0.43178 0.45398 0.74035
 H91 H 0.50157 0.34602 0.49188
 H92 H 0.57024 0.46622 0.64095
 C93 C -0.00239 0.40270 0.37996
 C94 C -0.03982 0.42094 0.28898
 C95 C -0.03859 0.46527 0.22489
 C96 C -0.00012 0.49148 0.24878
 C97 C 0.03791 0.47089 0.32867
 C98 C 0.03715 0.42611 0.38691
 C99 C 0.00065 0.53856 0.17594
 C100 C 0.03949 0.55853 0.11604
 C101 C 0.03850 0.60110 0.03167
 C102 C -0.00171 0.62336 0.00275
 C103 C -0.04033 0.60418 0.06208
 C104 C -0.03857 0.56336 0.15727
 H105 H -0.00263 0.36811 0.42587
 H106 H -0.06722 0.47816 0.14822
 H107 H 0.06881 0.48833 0.33768
 H108 H 0.07053 0.54112 0.12978
 H109 H -0.00308 0.65522 -0.06973
 H110 H -0.06867 0.55043 0.20968
 C111 C 0.49535 0.87591 0.36986
 C112 C 0.45641 0.90064 0.37310
 C113 C 0.45633 0.94615 0.32489
 C114 C 0.49494 0.96750 0.27169
 C115 C 0.53327 0.94120 0.26017
 C116 C 0.53397 0.89603 0.31395
 C117 C 0.49618 1.01740 0.24533
 C118 C 0.53572 1.04134 0.27676
 C119 C 0.53643 1.08828 0.26965
 C120 C 0.49750 1.11208 0.23389
 C121 C 0.45783 1.08926 0.20429
 C122 C 0.45745 1.04221 0.20535
 H123 H 0.49592 0.84141 0.41733
 H124 H 0.42619 0.96473 0.33869
 H125 H 0.56331 0.95564 0.21426
 H126 H 0.56606 1.02428 0.31522
 H127 H 0.49788 1.14850 0.23453
 H128 H 0.42627 1.02571 0.18174
 C129 C 1.11993 0.18126 -0.03117
 C130 C 1.14495 0.17625 0.14339
 C131 C 1.13179 0.14309 0.26922
 C132 C 1.09632 0.11524 0.22704
 C133 C 1.07227 0.11910 0.05783
 C134 C 1.08429 0.15124 -0.07474
 C135 C 1.12717 0.21609 -0.16093
 C136 C 1.10304 0.21873 -0.33106
 C137 C 1.07048 0.18764 -0.37646
 C138 C 1.06083 0.15440 -0.24951
 H139 H 1.15018 0.24285 -0.13543
 H140 H 1.10954 0.24536 -0.42795
 H141 H 1.05224 0.18965 -0.50990
 H142 H 1.03482 0.13117 -0.28993
 H143 H 1.14911 0.13812 0.40346
 H144 H 1.08710 0.09070 0.32898
 C145 C 0.65013 0.63793 0.94315
 C146 C 0.65380 0.66391 0.77913
 C147 C 0.62014 0.66312 0.63965
 C148 C 0.58241 0.63856 0.66279
 C149 C 0.57730 0.61376 0.82557
 C150 C 0.61121 0.61286 0.96725
 C151 C 0.68424 0.63595 1.08281
 C152 C 0.67946 0.61113 1.24553
 C153 C 0.64102 0.58735 1.27029
 C154 C 0.60708 0.58812 1.13296
 H155 H 0.71494 0.65296 1.06604
 H156 H 0.70569 0.61022 1.35297
 H157 H 0.63748 0.56812 1.39651
 H158 H 0.57765 0.56941 1.15827
 H159 H 0.62258 0.68262 0.51326
 H160 H 0.55688 0.63882 0.55208
 C161 C -0.11327 0.31939 0.17251
 C162 C -0.15380 0.33595 0.23452
 C163 C -0.15661 0.38031 0.29998
 C164 C -0.11993 0.40813 0.30737
 C165 C -0.07924 0.39236 0.25072
 C166 C -0.07630 0.34833 0.17315
 C167 C -0.10816 0.27411 0.11655
 C168 C -0.06819 0.25818 0.05618
 C169 C -0.03309 0.28733 0.04305
 C170 C -0.03725 0.33215 0.09729
 H171 H -0.13481 0.25066 0.12142
 H172 H -0.06455 0.22322 0.01715
 H173 H -0.00242 0.27513 -0.00858
 H174 H -0.00962 0.35387 0.07924
 H175 H -0.18725 0.39327 0.34946
 H176 H -0.12297 0.44175 0.36462
 C177 C 0.35500 0.87229 0.64603
 C178 C 0.33879 0.83484 0.53759
 C179 C 0.36023 0.82229 0.37537
 C180 C 0.39788 0.84428 0.32426
 C181 C 0.41591 0.87919 0.43465
 C182 C 0.39484 0.89325 0.59812
 C183 C 0.33261 0.88996 0.79975
 C184 C 0.35062 0.92450 0.91120
 C185 C 0.39093 0.94261 0.87147
 C186 C 0.41291 0.92737 0.71658
 H187 H 0.30052 0.87857 0.83340
 H188 H 0.33313 0.93732 1.02891
 H189 H 0.40496 0.96904 0.95949
 H190 H 0.44410 0.94257 0.69074
 H191 H 0.34858 0.79420 0.28969
 H192 H 0.41354 0.83353 0.19818
 C193 C -0.15605 0.62569 -0.14587
 C194 C -0.16243 0.67045 -0.08190
 C195 C -0.13064 0.69048 0.03923
 C196 C -0.09162 0.66820 0.08680
 C197 C -0.08318 0.62537 0.01411
 C198 C -0.11545 0.60363 -0.10368
 C199 C -0.18914 0.60232 -0.25141
 C200 C -0.18129 0.55964 -0.32471
 C201 C -0.14059 0.53930 -0.29397
 C202 C -0.10791 0.56091 -0.18484
 H203 H -0.22160 0.61632 -0.27545
 H204 H -0.20689 0.54232 -0.40610
 H205 H -0.13444 0.50638 -0.35313
 H206 H -0.07681 0.54378 -0.16612
 H207 H -0.13489 0.72462 0.08917
 H208 H -0.06722 0.68503 0.17703
 C209 C 0.34410 1.13739 0.06697
 C210 C 0.33716 1.16351 0.23054
 C211 C 0.36911 1.16377 0.37751
 C212 C 0.40787 1.13993 0.36359
 C213 C 0.41615 1.11472 0.20268
 C214 C 0.38421 1.11309 0.05223
 C215 C 0.31184 1.13396 -0.08024
 C216 C 0.31950 1.10856 -0.24073
 C217 C 0.35919 1.08609 -0.25759
 C218 C 0.39139 1.08831 -0.11308
 H219 H 0.28025 1.15007 -0.07152
 H220 H 0.29450 1.10633 -0.35279
 H221 H 0.36506 1.06677 -0.38325
 H222 H 0.42184 1.07058 -0.13246
 H223 H 0.36454 1.18359 0.50334
 H224 H 0.43172 1.14099 0.48078
 C225 C 1.15953 -0.11046 -0.37341
 C226 C 1.15525 -0.15750 -0.40305
 C227 C 1.11426 -0.17497 -0.45778
 C228 C 1.07693 -0.14855 -0.45139
 C229 C 1.07910 -0.10223 -0.40818
 C230 C 1.12151 -0.08234 -0.39070
 C231 C 1.20105 -0.09036 -0.34224
 C232 C 1.20531 -0.04378 -0.33462
 C233 C 1.16870 -0.01641 -0.36535
 C234 C 1.12733 -0.03538 -0.39671
 H235 H 1.23066 -0.11027 -0.33037
 H236 H 1.23738 -0.02888 -0.31109
 H237 H 1.17244 0.01972 -0.36676
 H238 H 1.10011 -0.01302 -0.42968
 H239 H 1.11023 -0.21069 -0.48454
 H240 H 1.04626 -0.16615 -0.46943
 C241 C 0.64492 0.37596 0.31462
 C242 C 0.66194 0.34066 0.43011
 C243 C 0.64005 0.32959 0.59203
 C244 C 0.60101 0.35058 0.63500
 C245 C 0.58232 0.38342 0.51783
 C246 C 0.60431 0.39681 0.35706
 C247 C 0.66742 0.39158 0.15946
 C248 C 0.64927 0.42487 0.04354
 C249 C 0.60885 0.44373 0.08083
 C250 C 0.58651 0.43010 0.23613
 H251 H 0.69960 0.37923 0.12837
 H252 H 0.66674 0.43625 -0.07563
 H253 H 0.59501 0.46946 -0.00954
 H254 H 0.55527 0.44587 0.26046
 H255 H 0.65201 0.30293 0.68249
 H256 H 0.58486 0.34063 0.76008
 C257 C 0.88742 -0.19212 -0.36254
 C258 C 0.84506 -0.17183 -0.37498
 C259 C 0.84137 -0.12497 -0.36540
 C260 C 0.87844 -0.09794 -0.35716
 C261 C 0.92050 -0.11684 -0.33861
 C262 C 0.92494 -0.16442 -0.32908
 C263 C 0.89324 -0.23938 -0.36455
 C264 C 0.93418 -0.25870 -0.32532
 C265 C 0.96990 -0.23170 -0.27662
 C266 C 0.96533 -0.18514 -0.27558
 H267 H 0.86649 -0.26217 -0.39326
 H268 H 0.93784 -0.29489 -0.32672
 H269 H 1.00123 -0.24689 -0.23773
 H270 H 0.99343 -0.16585 -0.22609
 H271 H 0.80937 -0.10904 -0.37002
 H272 H 0.87414 -0.06183 -0.36149
 C273 C 0.34783 0.37259 0.39893
 C274 C 0.33981 0.33125 0.48909
 C275 C 0.37083 0.31467 0.62221
 C276 C 0.41032 0.33692 0.65974
 C277 C 0.42003 0.37622 0.56448
 C278 C 0.38893 0.39430 0.43161
 C279 C 0.31589 0.39314 0.27782
 C280 C 0.32549 0.43201 0.18064
 C281 C 0.36668 0.45150 0.20305
 C282 C 0.39810 0.43315 0.32795
 H283 H 0.28302 0.38002 0.25919
 H284 H 0.30083 0.44704 0.08719
 H285 H 0.37417 0.48128 0.12493
 H286 H 0.42960 0.44955 0.34108
 H287 H 0.36526 0.28323 0.69233
 H288 H 0.43382 0.32302 0.76207
 C289 C 0.14672 0.62815 -0.19948
 C290 C 0.15431 0.67208 -0.12466
 C291 C 0.12582 0.68942 0.00663
 C292 C 0.08921 0.66548 0.05644
 C293 C 0.07937 0.62338 -0.02386
 C294 C 0.10810 0.60438 -0.15424
 C295 C 0.17689 0.60682 -0.31575
 C296 C 0.16778 0.56490 -0.39641
 C297 C 0.12872 0.54330 -0.36307
 C298 C 0.09905 0.56265 -0.24330
 H299 H 0.20827 0.62151 -0.34187
 H300 H 0.19122 0.54906 -0.48521
 H301 H 0.12179 0.51102 -0.42805
 H302 H 0.06912 0.54459 -0.22174
 H303 H 0.13110 0.72258 0.06721
 H304 H 0.06776 0.68039 0.15682
 C305 C 0.62461 1.16821 0.47277
 C306 C 0.65444 1.16621 0.32574
 C307 C 0.64602 1.13684 0.17384
 C308 C 0.60851 1.11058 0.16218
 C309 C 0.57803 1.11288 0.30198
 C310 C 0.58636 1.14080 0.46145
 C311 C 0.63072 1.19793 0.62702
 C312 C 0.60110 1.19919 0.76978
 C313 C 0.56472 1.17119 0.76200
 C314 C 0.55714 1.14237 0.60902
 H315 H 0.65799 1.22072 0.63950
 H316 H 0.60650 1.22205 0.88722
 H317 H 0.54213 1.17203 0.87454
 H318 H 0.52833 1.12132 0.60740
 H319 H 0.66819 1.13519 0.05978
 H320 H 0.60237 1.08949 0.03923
 C321 C 0.14555 0.36993 0.55081
 C322 C 0.15232 0.34289 0.38955
 C323 C 0.12279 0.34594 0.23437
 C324 C 0.08657 0.37384 0.23779
 C325 C 0.07806 0.39953 0.39698
 C326 C 0.10770 0.39826 0.55498
 C327 C 0.17604 0.37078 0.70480
 C328 C 0.16890 0.39790 0.86121
 C329 C 0.13142 0.42466 0.86659
 C330 C 0.10083 0.42473 0.71548
 H331 H 0.20609 0.35161 0.70358
 H332 H 0.19269 0.39834 0.97853
 H333 H 0.12610 0.44571 0.98795
 H334 H 0.07222 0.44610 0.72342
 H335 H 0.12739 0.32593 0.10888
 H336 H 0.06469 0.37524 0.11414
 C337 C 0.62094 0.80291 0.31413
 C338 C 0.65207 0.82173 0.44757
 C339 C 0.64555 0.86549 0.51467
 C340 C 0.60837 0.88994 0.46045
 C341 C 0.57623 0.87153 0.33697
 C342 C 0.58317 0.82859 0.25633
 C343 C 0.62508 0.75875 0.24170
 C344 C 0.59419 0.74151 0.11040
 C345 C 0.55865 0.76746 0.04820
 C346 C 0.55301 0.81059 0.12028
 H347 H 0.65156 0.73666 0.28519
 H348 H 0.59770 0.70775 0.05669
 H349 H 0.53512 0.75394 -0.05520
 H350 H 0.52494 0.82975 0.06800
 H351 H 0.66893 0.88052 0.61507
 H352 H 0.60365 0.92283 0.52281
 C353 C 0.84780 0.12260 0.26050
 C354 C 0.83333 0.15652 0.13256
 C355 C 0.85517 0.16169 -0.03455
 C356 C 0.89325 0.13755 -0.06655
 C357 C 0.91051 0.10738 0.06665
 C358 C 0.88739 0.09875 0.22971
 C359 C 0.82378 0.11162 0.41819
 C360 C 0.83964 0.07997 0.54748
 C361 C 0.87936 0.05829 0.52167
 C362 C 0.90312 0.06741 0.36445
 H363 H 0.79207 0.12642 0.44082
 H364 H 0.82097 0.07216 0.66821
 H365 H 0.89154 0.03389 0.62283
 H366 H 0.93367 0.04953 0.34907
 H367 H 0.84463 0.18678 -0.13572
 H368 H 0.91040 0.14377 -0.19330
 C369 C 0.34709 0.63691 0.93763
 C370 C 0.34009 0.66511 0.77981
 C371 C 0.37020 0.66447 0.63751
 C372 C 0.40763 0.63805 0.65207
 C373 C 0.41604 0.61104 0.80852
 C374 C 0.38565 0.60974 0.95230
 C375 C 0.31639 0.63420 1.07885
 C376 C 0.32411 0.60642 1.23327
 C377 C 0.36226 0.58072 1.24953
 C378 C 0.39284 0.58225 1.11061
 H379 H 0.28594 0.65279 1.06995
 H380 H 0.30028 0.60473 1.34054
 H381 H 0.36806 0.55931 1.36991
 H382 H 0.42190 0.56154 1.12723
 H383 H 0.36530 0.68557 0.51531
 H384 H 0.43058 0.63904 0.54083
   
