data_POSCAR
  _audit_creation_date              2014-09-24
  _audit_creation_method            'ToBaCCo'
  _symmetry_space_group_name_H-M    'P1'
  _symmetry_Int_Tables_number       1
  _symmetry_cell_setting            triclinic
  loop_
  _symmetry_equiv_pos_as_xyz
 x,y,z
_cell_length_a 19.0108
_cell_length_b 19.0107
_cell_length_c 25.4303
_cell_angle_alpha 89.932600
_cell_angle_beta 89.933300
_cell_angle_gamma 120.341800
loop_
  _atom_site_label
  _atom_site_type_symbol
  _atom_site_fract_x
  _atom_site_fract_y
  _atom_site_fract_z
C1 C 0.04219 0.52235 1.29869
 C2 C -0.04389 0.47813 1.29877
 C3 C -0.08626 0.45617 1.25085
 C4 C -0.04427 0.47759 1.20277
 C5 C 0.04163 0.52175 1.20272
 C6 C 0.08404 0.54373 1.25055
 H7 H 0.15023 0.57781 1.25018
 H8 H -0.15248 0.42204 1.25099
 C9 C 0.47749 0.52289 1.29867
 C10 C 0.52086 0.48080 1.29883
 C11 C 0.54239 0.45986 1.25110
 C12 C 0.52132 0.48023 1.20307
 C13 C 0.47813 0.52234 1.20284
 C14 C 0.45649 0.54331 1.25054
 H15 H 0.42299 0.57565 1.25007
 H16 H 0.57586 0.42752 1.25135
 C17 C 0.52003 1.04306 1.20214
 C18 C 0.47848 0.95722 1.20207
 C19 C 0.45755 0.91446 1.24986
 C20 C 0.47750 0.95616 1.29791
 C21 C 0.51903 1.04201 1.29792
 C22 C 0.53991 1.08473 1.25015
 H23 H 0.57190 1.15089 1.25047
 H24 H 0.42563 0.84830 1.24954
 C25 C 1.04408 0.52029 0.79694
 C26 C 0.95838 0.47884 0.79710
 C27 C 0.91636 0.45878 0.74925
 C28 C 0.95877 0.47953 0.70135
 C29 C 1.04463 0.52102 0.70117
 C30 C 1.08662 0.54105 0.74910
 H31 H 1.15278 0.57300 0.74929
 H32 H 0.85024 0.42690 0.74928
 C33 C 0.47955 0.52167 0.79787
 C34 C 0.52157 0.47837 0.79788
 C35 C 0.54210 0.45716 0.74994
 C36 C 0.52130 0.47862 0.70214
 C37 C 0.47923 0.52188 0.70211
 C38 C 0.45872 0.54311 0.75006
 H39 H 0.42642 0.57662 0.75018
 H40 H 0.57441 0.42366 0.74982
 C41 C 0.52122 0.04007 0.70200
 C42 C 0.47699 -0.04585 0.70179
 C43 C 0.45541 -0.08814 0.74980
 C44 C 0.47730 -0.04594 0.79780
 C45 C 0.52145 0.03997 0.79787
 C46 C 0.54303 0.08214 0.74993
 H47 H 0.57711 0.14829 0.74991
 H48 H 0.42125 -0.15436 0.74983
 O49 O 0.45243 0.67113 0.93920
 O50 O 0.45658 0.80827 0.95464
 C51 C 0.40495 0.81687 0.92798
 O52 O 0.32969 0.78087 0.93860
 O53 O 0.19241 0.64721 0.95547
 C54 C 0.18335 0.58650 0.92911
 O55 O 0.21895 0.54727 0.93974
 O56 O 0.35220 0.54416 0.95616
 C57 C 0.41298 0.59568 0.92935
 O58 O 0.45643 0.64918 1.04399
 O59 O 0.45288 0.78237 1.05957
 C60 C 0.41335 0.81777 1.06988
 O61 O 0.35274 0.80837 1.04326
 O62 O 0.21914 0.67095 1.06009
 C63 C 0.18305 0.59570 1.07076
 O64 O 0.19217 0.54409 1.04446
 O65 O 0.32943 0.54878 1.06076
 C66 C 0.40482 0.58845 1.07081
 Cr67 Cr 0.45026 0.72559 0.99936
 Cr68 Cr 0.27566 0.72472 0.99937
 Cr69 Cr 0.27534 0.55040 1.00026
 O70 O 0.33376 0.66690 0.99968
 O71 O 0.54835 0.32924 0.94071
 O72 O 0.54406 0.19183 0.95582
 C73 C 0.59549 0.18158 0.93007
 O74 O 0.67051 0.21667 0.94123
 O75 O 0.80809 0.35081 0.95620
 C76 C 0.81850 0.41238 0.93010
 O77 O 0.78404 0.45260 0.94114
 O78 O 0.65043 0.45586 0.95583
 C79 C 0.58869 0.40445 0.92986
 O80 O 0.54412 0.35009 1.04581
 O81 O 0.54696 0.21628 1.06101
 C82 C 0.58690 0.18159 1.07224
 O83 O 0.64876 0.19205 1.04647
 O84 O 0.78293 0.32961 1.06150
 C85 C 0.81797 0.40467 1.07256
 O86 O 0.80809 0.45608 1.04648
 O87 O 0.67074 0.45213 1.06101
 C88 C 0.59547 0.41198 1.07171
 Cr89 Cr 0.55042 0.27413 1.00085
 Cr90 Cr 0.72533 0.27456 1.00134
 Cr91 Cr 0.72608 0.44962 1.00112
 O92 O 0.66727 0.33276 1.00112
 O93 O 0.64912 0.45640 0.54405
 O94 O 0.78242 0.45297 0.55958
 C95 C 0.81796 0.41356 0.56982
 O96 O 0.80836 0.35277 0.54333
 O97 O 0.67094 0.21907 0.56010
 C98 C 0.59566 0.18284 0.57069
 O99 O 0.54409 0.19216 0.54451
 O100 O 0.54867 0.32940 0.56077
 C101 C 0.58823 0.40481 0.57075
 O102 O 0.67095 0.45251 0.43932
 O103 O 0.80822 0.45669 0.45471
 C104 C 0.81726 0.40518 0.42824
 O105 O 0.78111 0.32986 0.43873
 O106 O 0.64734 0.19246 0.45552
 C107 C 0.58631 0.18296 0.42935
 O108 O 0.54719 0.21872 0.43986
 O109 O 0.54404 0.35207 0.45622
 C110 C 0.59545 0.41316 0.42960
 Cr111 Cr 0.72552 0.45029 0.49942
 Cr112 Cr 0.72478 0.27572 0.49943
 Cr113 Cr 0.55035 0.27526 0.50031
 O114 O 0.66689 0.33376 0.49970
 O115 O 0.35011 0.54415 0.54414
 O116 O 0.21632 0.54692 0.55925
 C117 C 0.18180 0.58697 0.57062
 O118 O 0.19208 0.64872 0.54480
 O119 O 0.32955 0.78287 0.55974
 C120 C 0.40455 0.81773 0.57094
 O121 O 0.45602 0.80804 0.54480
 O122 O 0.45216 0.67078 0.55925
 C123 C 0.41189 0.59557 0.57008
 O124 O 0.32940 0.54830 0.43898
 O125 O 0.19191 0.54394 0.45399
 C126 C 0.18151 0.59533 0.42829
 O127 O 0.21647 0.67034 0.43950
 O128 O 0.35063 0.80799 0.45437
 C129 C 0.41229 0.81854 0.42831
 O130 O 0.45262 0.78421 0.43940
 O131 O 0.45595 0.65058 0.45400
 C132 C 0.40459 0.58874 0.42807
 Cr133 Cr 0.27419 0.55038 0.49909
 Cr134 Cr 0.27447 0.72524 0.49959
 Cr135 Cr 0.44964 0.72614 0.49935
 O136 O 0.33276 0.66725 0.49932
 C137 C 0.45465 0.54424 0.34420
 C138 C 0.43283 0.56405 0.38323
 C139 C 0.45630 0.91205 0.34361
 C140 C 0.43677 0.87091 0.38301
 C141 C 0.08673 0.54548 0.34425
 C142 C 0.12847 0.56730 0.38334
 C143 C 0.54478 0.45835 0.34685
 C144 C 0.56683 0.43829 0.38548
 C145 C 0.54124 0.08836 0.34595
 C146 C 0.56112 0.12997 0.38482
 C147 C 0.91189 0.45525 0.34435
 C148 C 0.87024 0.43342 0.38341
 C149 C 0.54528 0.45734 1.15505
 C150 C 0.56713 0.43712 1.11624
 C151 C 0.91169 0.45451 1.15707
 C152 C 0.87045 0.43272 1.11777
 C153 C 0.54163 0.08734 1.15654
 C154 C 0.56170 0.12882 1.11731
 C155 C 0.45460 0.54449 1.15460
 C156 C 0.43299 0.56408 1.11555
 C157 C 0.08831 0.54583 1.15457
 C158 C 0.13003 0.56762 1.11556
 C159 C 0.45674 0.91114 1.15390
 C160 C 0.43756 0.87010 1.11476
 C161 C 0.54367 0.45488 0.65408
 C162 C 0.56351 0.43310 0.61524
 C163 C 0.54550 0.08717 0.65404
 C164 C 0.56747 0.12935 0.61524
 C165 C 0.91227 0.45757 0.65338
 C166 C 0.87076 0.43812 0.61445
 C167 C 0.45663 0.54571 0.65391
 C168 C 0.43671 0.56740 0.61488
 C169 C 0.45404 0.91050 0.65593
 C170 C 0.43241 0.86971 0.61642
 C171 C 0.08852 0.54234 0.65539
 C172 C 0.12954 0.56210 0.61596
 C173 C 0.45732 0.54547 0.84597
 C174 C 0.43762 0.56730 0.88486
 C175 C 0.09009 0.54228 0.84506
 C176 C 0.13111 0.56180 0.88420
 C177 C 0.45454 0.91017 0.84345
 C178 C 0.43294 0.86910 0.88278
 C179 C 0.54410 0.45443 0.84605
 C180 C 0.56396 0.43265 0.88505
 C181 C 0.91201 0.45648 0.84546
 C182 C 0.87087 0.43691 0.88483
 C183 C 0.54571 0.08680 0.84609
 C184 C 0.56750 0.12855 0.88515
   
