data_POSCAR
  _audit_creation_date              2014-09-24
  _audit_creation_method            'ToBaCCo'
  _symmetry_space_group_name_H-M    'P1'
  _symmetry_Int_Tables_number       1
  _symmetry_cell_setting            triclinic
  loop_
  _symmetry_equiv_pos_as_xyz
 x,y,z
_cell_length_a 12.6678
_cell_length_b 12.9823
_cell_length_c 33.7452
_cell_angle_alpha 92.707400
_cell_angle_beta 88.131100
_cell_angle_gamma 121.960300
loop_
  _atom_site_label
  _atom_site_type_symbol
  _atom_site_fract_x
  _atom_site_fract_y
  _atom_site_fract_z
Si1 Si -0.12633 -0.03714 0.50630
 Si2 Si 0.96535 -0.13149 0.15876
 Si3 Si 0.15163 1.15501 0.83160
 O4 O 0.42040 -0.04200 -0.05197
 O5 O 0.58017 -0.12490 0.01871
 O6 O 0.35725 -0.16470 0.01544
 O7 O 0.60885 -0.08028 -0.05598
 O8 O 0.70723 0.10797 -0.03107
 O9 O 0.44837 0.02347 0.03954
 O10 O 0.66939 0.06173 0.04475
 O11 O 0.52016 0.14418 -0.02586
 Cu12 Cu 0.48175 -0.11867 -0.02115
 Cu13 Cu 0.59603 0.10227 0.00880
 C14 C 0.44336 0.06673 -0.05056
 C15 C 0.65188 -0.04348 0.04419
 C16 C 0.35814 -0.08731 0.03980
 C17 C 0.70179 0.02731 -0.05566
 O18 O -0.01286 0.44726 0.71497
 O19 O -0.09439 0.59092 0.64043
 O20 O -0.10974 0.38087 0.64424
 O21 O -0.04961 0.62841 0.71531
 O22 O 0.14692 0.73091 0.69631
 O23 O 0.08461 0.48810 0.62290
 O24 O 0.10263 0.69702 0.62121
 O25 O 0.18175 0.54774 0.69379
 Cu26 Cu -0.08597 0.50097 0.68057
 Cu27 Cu 0.14813 0.62547 0.65680
 C28 C 0.09885 0.47237 0.71691
 C29 C -0.00795 0.67270 0.61932
 C30 C -0.02295 0.39145 0.62169
 C31 C 0.05732 0.72465 0.71665
 O32 O 0.50793 0.55568 0.28996
 O33 O 0.26077 0.36079 0.36165
 O34 O 0.45666 0.59005 0.36371
 O35 O 0.28830 0.36687 0.28474
 O36 O 0.38001 0.26708 0.29784
 O37 O 0.55409 0.49727 0.37798
 O38 O 0.36076 0.26847 0.37292
 O39 O 0.60063 0.45724 0.30203
 Cu40 Cu 0.36953 0.47753 0.32460
 Cu41 Cu 0.48654 0.36650 0.33960
 C42 C 0.59590 0.53640 0.28321
 C43 C 0.26702 0.27766 0.37830
 C44 C 0.53277 0.58249 0.38470
 C45 C 0.30343 0.27905 0.27788
 C46 C -0.15476 0.22776 0.57210
 C47 C -0.17731 0.13314 0.54520
 C48 C -0.09039 0.09818 0.53991
 C49 C 0.02435 0.16377 0.56103
 C50 C 0.04315 0.25420 0.59001
 C51 C -0.04520 0.28929 0.59453
 C52 C 0.14920 0.30474 0.61429
 N53 N 0.23590 0.27513 0.60731
 N54 N 0.22351 0.19767 0.57797
 C55 C 0.12170 0.14172 0.55460
 H56 H -0.22324 0.25350 0.57538
 H57 H -0.26364 0.08569 0.52889
 H58 H 0.16374 0.36583 0.63922
 H59 H 0.11947 0.08138 0.53119
 C60 C 0.64829 0.62502 0.21720
 C61 C 0.72991 0.68647 0.18634
 C62 C 0.85744 0.73401 0.18982
 C63 C 0.89940 0.69851 0.22191
 C64 C 0.81678 0.63722 0.25398
 C65 C 0.68982 0.60240 0.25177
 C66 C 0.86688 0.61979 0.28792
 N67 N 0.98818 0.65399 0.28840
 N68 N 1.06371 0.70621 0.25761
 C69 C 1.02366 0.73005 0.22454
 H70 H 0.55186 0.59735 0.21426
 H71 H 0.69299 0.70345 0.16077
 H72 H 0.81289 0.58229 0.31455
 H73 H 1.08959 0.77381 0.20080
 C74 C 0.37805 0.06765 -0.11842
 C75 C 0.32452 0.10026 -0.14666
 C76 C 0.27299 0.17154 -0.13674
 C77 C 0.29140 0.22200 -0.09733
 C78 C 0.34134 0.18440 -0.06792
 C79 C 0.38385 0.10501 -0.07874
 C80 C 0.34310 0.22513 -0.02835
 N81 N 0.30767 0.30552 -0.01956
 N82 N 0.26990 0.34746 -0.04753
 C83 C 0.26117 0.30879 -0.08596
 H84 H 0.41396 0.01076 -0.12771
 H85 H 0.31989 0.06288 -0.17611
 H86 H 0.37057 0.19321 -0.00413
 H87 H 0.23390 0.34845 -0.10746
 C88 C 0.00531 0.76180 0.55468
 C89 C -0.02226 0.82669 0.52969
 C90 C -0.09602 0.87292 0.54264
 C91 C -0.13467 0.86035 0.58360
 C92 C -0.09990 0.80028 0.60939
 C93 C -0.03571 0.74497 0.59411
 C94 C -0.12787 0.80000 0.65022
 N95 N -0.19336 0.84947 0.66397
 N96 N -0.23367 0.89851 0.63963
 C97 C -0.20754 0.90481 0.60028
 H98 H 0.05948 0.72450 0.54311
 H99 H 0.01707 0.84213 0.50026
 H100 H -0.09706 0.76275 0.67157
 H101 H -0.25081 0.93817 0.58245
 C102 C 0.12435 0.07882 0.26066
 C103 C 0.04204 -0.00919 0.23378
 C104 C 0.06052 0.00619 0.19273
 C105 C 0.15641 0.12105 0.17900
 C106 C 0.24049 0.21105 0.20665
 C107 C 0.22578 0.18731 0.24756
 C108 C 0.33815 0.32166 0.19238
 N109 N 0.34946 0.34178 0.15299
 N110 N 0.26981 0.25832 0.12699
 C111 C 0.17396 0.14896 0.13859
 H112 H 0.10722 0.06285 0.29209
 H113 H -0.03648 -0.08941 0.24585
 H114 H 0.40568 0.39161 0.21224
 H115 H 0.11347 0.08527 0.11600
 C116 C 0.85766 -0.01139 -0.08733
 C117 C 0.96129 0.02158 -0.11167
 C118 C 1.01644 0.12724 -0.13364
 C119 C 0.96904 0.20624 -0.12795
 C120 C 0.85741 0.16671 -0.10590
 C121 C 0.80487 0.06004 -0.08418
 C122 C 0.80195 0.23654 -0.10581
 N123 N 0.86223 0.34630 -0.12250
 N124 N 0.97434 0.39088 -0.13880
 C125 C 1.03014 0.32598 -0.14134
 H126 H 0.81961 -0.09242 -0.07023
 H127 H 1.00006 -0.03544 -0.11270
 H128 H 0.71144 0.20526 -0.09264
 H129 H 1.12404 0.37288 -0.15155
 C130 C 0.29188 -0.06058 0.10662
 C131 C 0.20375 -0.07939 0.13545
 C132 C 0.07685 -0.15842 0.12816
 C133 C 0.04090 -0.23903 0.09458
 C134 C 0.13040 -0.21942 0.06438
 C135 C 0.25742 -0.12455 0.07002
 C136 C 0.08699 -0.29223 0.02925
 N137 N -0.03457 -0.38186 0.02591
 N138 N -0.11661 -0.40291 0.05491
 C139 C -0.08314 -0.33436 0.08904
 H140 H 0.38803 0.00840 0.11268
 H141 H 0.23620 -0.02554 0.16272
 H142 H 0.14643 -0.27934 0.00404
 H143 H -0.15388 -0.35456 0.11139
 C144 C 0.65298 0.79679 0.41019
 C145 C 0.71575 0.88558 0.44018
 C146 C 0.72201 0.85360 0.47883
 C147 C 0.64403 0.72872 0.48811
 C148 C 0.58448 0.63808 0.45743
 C149 C 0.59414 0.67282 0.41781
 C150 C 0.51231 0.51532 0.46779
 N151 N 0.49659 0.48612 0.50643
 N152 N 0.54624 0.57138 0.53525
 C153 C 0.61756 0.69092 0.52725
 H154 H 0.65603 0.82531 0.38030
 H155 H 0.76942 0.97972 0.43201
 H156 H 0.46533 0.44237 0.44582
 H157 H 0.64458 0.75524 0.55132
 C158 C 0.03647 0.28324 0.74901
 C159 C 0.05262 0.21210 0.77427
 C160 C 0.16152 0.25904 0.79654
 C161 C 0.25946 0.38185 0.79142
 C162 C 0.24162 0.45592 0.76577
 C163 C 0.12810 0.40536 0.74457
 C164 C 0.33614 0.57938 0.76381
 N165 N 0.44187 0.62426 0.78492
 N166 N 0.45923 0.55473 0.80824
 C167 C 0.37159 0.43562 0.81239
 H168 H -0.04999 0.24172 0.73280
 H169 H -0.02436 0.11906 0.77713
 H170 H 0.32687 0.64176 0.74645
 H171 H 0.39106 0.38463 0.83193
 C172 C 0.80985 -0.09042 0.05881
 C173 C 0.88601 -0.10112 0.08481
 C174 C 0.87065 -0.09569 0.12611
 C175 C 0.78200 -0.06775 0.14122
 C176 C 0.70519 -0.05556 0.11452
 C177 C 0.71877 -0.06870 0.07312
 C178 C 0.61545 -0.03208 0.13018
 N179 N 0.60503 -0.01919 0.16992
 N180 N 0.67801 -0.02873 0.19502
 C181 C 0.76579 -0.05239 0.18211
 H182 H 0.82511 -0.09497 0.02714
 H183 H 0.95856 -0.11167 0.07187
 H184 H 0.55296 -0.02481 0.11119
 H185 H 0.82042 -0.06016 0.20412
 C186 C 0.12286 0.24342 0.43353
 C187 C 0.03646 0.17216 0.46195
 C188 C -0.00948 0.04689 0.46424
 C189 C 0.02420 -0.00835 0.43309
 C190 C 0.11481 0.06548 0.40414
 C191 C 0.16653 0.19324 0.40527
 C192 C 0.14610 0.00778 0.37383
 N193 N 0.08871 -0.11490 0.37203
 N194 N 0.00179 -0.18393 0.39835
 C195 C -0.03291 -0.13508 0.42852
 H196 H 0.15789 0.33989 0.43418
 H197 H 0.00570 0.21873 0.48176
 H198 H 0.21318 0.05825 0.35091
 H199 H -0.10638 -0.19642 0.44812
 C200 C -0.00089 0.81298 0.77417
 C201 C 0.01886 0.90959 0.79955
 C202 C 0.12200 1.02695 0.79448
 C203 C 0.20159 1.04785 0.76078
 C204 C 0.17225 0.95232 0.73251
 C205 C 0.07700 0.83166 0.74118
 C206 C 0.23885 0.98212 0.69621
 N207 N 0.33851 1.09550 0.69113
 N208 N 0.37558 1.18133 0.71970
 C209 C 0.31151 1.16107 0.75431
 H210 H -0.07763 0.72249 0.78059
 H211 H -0.04586 0.89064 0.82373
 H212 H 0.21151 0.91833 0.67130
 H213 H 0.34921 1.23314 0.77658
   
