data_POSCAR
  _audit_creation_date              2014-09-24
  _audit_creation_method            'ToBaCCo'
  _symmetry_space_group_name_H-M    'P1'
  _symmetry_Int_Tables_number       1
  _symmetry_cell_setting            triclinic
  loop_
  _symmetry_equiv_pos_as_xyz
 x,y,z
_cell_length_a 39.1513
_cell_length_b 38.3784
_cell_length_c 39.4173
_cell_angle_alpha 90.333300
_cell_angle_beta 89.933300
_cell_angle_gamma 90.051600
loop_
  _atom_site_label
  _atom_site_type_symbol
  _atom_site_fract_x
  _atom_site_fract_y
  _atom_site_fract_z
N1 N 0.58513 0.67976 0.60979
 N2 N 0.57206 0.66608 0.63741
 C3 C 0.54423 0.68447 0.64662
 C4 C 0.53944 0.71083 0.62332
 C5 C 0.56582 0.70698 0.60023
 H6 H 0.52840 0.67898 0.66844
 H7 H 0.57100 0.72325 0.57851
 Cu8 Cu 0.59265 0.62549 0.65846
 Cu9 Cu 0.62685 0.66207 0.58900
 Cu10 Cu 0.66480 0.59060 0.62703
 N11 N 0.61373 0.58490 0.67907
 N12 N 0.64276 0.57240 0.66758
 C13 C 0.65257 0.54564 0.68719
 C14 C 0.62805 0.54057 0.71219
 C15 C 0.60370 0.56606 0.70602
 H16 H 0.67540 0.53046 0.68283
 H17 H 0.58078 0.57116 0.72050
 N18 N 0.68311 0.61269 0.58580
 N19 N 0.66912 0.64038 0.57180
 C20 C 0.68777 0.64961 0.54455
 C21 C 0.71448 0.62636 0.54097
 C22 C 0.71070 0.60325 0.56748
 H23 H 0.68199 0.67119 0.52801
 H24 H 0.72709 0.58139 0.57312
 H25 H 0.62133 0.61123 0.60526
 H26 H 0.64717 0.64104 0.63267
 N27 N 0.91388 0.31762 0.11061
 N28 N 0.92422 0.32896 0.14036
 C29 C 0.95106 0.30973 0.15047
 C30 C 0.95834 0.28517 0.12545
 C31 C 0.93410 0.29120 0.10046
 H32 H 0.96479 0.31404 0.17387
 H33 H 0.93073 0.27697 0.07697
 Cu34 Cu 0.90291 0.36883 0.16256
 Cu35 Cu 0.87407 0.33687 0.08803
 Cu36 Cu 0.83624 0.40905 0.12527
 N37 N 0.88292 0.41119 0.18128
 N38 N 0.85636 0.42622 0.16722
 C39 C 0.84753 0.45441 0.18572
 C40 C 0.87007 0.45749 0.21256
 C41 C 0.89225 0.42969 0.20890
 H42 H 0.82679 0.47188 0.17967
 H43 H 0.91342 0.42332 0.22532
 N44 N 0.81955 0.38786 0.08281
 N45 N 0.83349 0.35986 0.06903
 C46 C 0.81565 0.35091 0.04110
 C47 C 0.78950 0.37467 0.03689
 C48 C 0.79281 0.39779 0.06371
 H49 H 0.82138 0.32893 0.02479
 H50 H 0.77642 0.41976 0.06923
 H51 H 0.88093 0.38663 0.10750
 H52 H 0.85060 0.35752 0.13066
 N53 N 0.41367 0.18264 -0.10970
 N54 N 0.42606 0.16952 -0.13803
 C55 C 0.45344 0.18836 -0.14754
 C56 C 0.45866 0.21446 -0.12374
 C57 C 0.43297 0.20997 -0.10002
 H58 H 0.46882 0.18322 -0.16981
 H59 H 0.42836 0.22578 -0.07768
 Cu60 Cu 0.40568 0.12865 -0.15930
 Cu61 Cu 0.37298 0.16384 -0.08798
 Cu62 Cu 0.33646 0.09060 -0.12501
 N63 N 0.38560 0.08684 -0.17907
 N64 N 0.35799 0.07266 -0.16607
 C65 C 0.34892 0.04490 -0.18505
 C66 C 0.37231 0.04125 -0.21116
 C67 C 0.39530 0.06825 -0.20652
 H68 H 0.32725 0.02825 -0.17994
 H69 H 0.41713 0.07415 -0.22230
 N70 N 0.31841 0.11261 -0.08342
 N71 N 0.33178 0.14101 -0.06982
 C72 C 0.31318 0.15024 -0.04244
 C73 C 0.28714 0.12626 -0.03839
 C74 C 0.29129 0.10273 -0.06474
 H75 H 0.31844 0.17244 -0.02626
 H76 H 0.27532 0.08039 -0.07016
 H77 H 0.38002 0.11330 -0.10503
 H78 H 0.35172 0.14178 -0.13099
 N79 N 0.08576 0.81879 0.38882
 N80 N 0.07510 0.83006 0.35929
 C81 C 0.04802 0.81091 0.34939
 C82 C 0.04093 0.78647 0.37430
 C83 C 0.06553 0.79250 0.39902
 H84 H 0.03403 0.81516 0.32618
 H85 H 0.06916 0.77832 0.42234
 Cu86 Cu 0.09643 0.86971 0.33710
 Cu87 Cu 0.12603 0.83784 0.41100
 Cu88 Cu 0.16386 0.90969 0.37391
 N89 N 0.11645 0.91197 0.31854
 N90 N 0.14325 0.92692 0.33243
 C91 C 0.15205 0.95501 0.31408
 C92 C 0.12925 0.95810 0.28750
 C93 C 0.10694 0.93041 0.29116
 H94 H 0.17299 0.97237 0.32004
 H95 H 0.08558 0.92405 0.27490
 N96 N 0.18102 0.88847 0.41591
 N97 N 0.16704 0.86061 0.42963
 C98 C 0.18521 0.85158 0.45721
 C99 C 0.21163 0.87514 0.46126
 C100 C 0.20815 0.89824 0.43471
 H101 H 0.17951 0.82969 0.47341
 H102 H 0.22463 0.92009 0.42916
 H103 H 0.11924 0.88758 0.39202
 H104 H 0.14909 0.85824 0.36823
 C105 C 0.10925 0.15293 0.11078
 C106 C 0.13878 0.13864 0.09613
 C107 C 0.15405 0.10980 0.11054
 C108 C 0.14022 0.09509 0.14001
 C109 C 0.11111 0.10922 0.15450
 C110 C 0.09567 0.13849 0.13994
 C111 C 0.08875 0.18055 0.10200
 N112 N 0.06342 0.18344 0.12538
 C113 C 0.06746 0.15793 0.14875
 C114 C 0.10311 0.08933 0.18234
 N115 N 0.12684 0.06374 0.18525
 C116 C 0.14971 0.06712 0.15954
 C117 C 0.18193 0.10138 0.09085
 N118 N 0.18413 0.12466 0.06512
 C119 C 0.15788 0.14759 0.06817
 H120 H 0.09217 0.19757 0.08044
 H121 H 0.05085 0.15366 0.17030
 H122 H 0.08175 0.09331 0.19940
 H123 H 0.17133 0.05011 0.15509
 H124 H 0.19961 0.08020 0.09516
 H125 H 0.15289 0.16898 0.05110
 C126 C 0.38935 0.84653 0.60948
 C127 C 0.35999 0.86121 0.59510
 C128 C 0.34540 0.89057 0.60959
 C129 C 0.35973 0.90539 0.63890
 C130 C 0.38870 0.89090 0.65309
 C131 C 0.40349 0.86117 0.63839
 C132 C 0.40916 0.81829 0.60065
 N133 N 0.43473 0.81527 0.62371
 C134 C 0.43142 0.84134 0.64693
 C135 C 0.39711 0.91079 0.68102
 N136 N 0.37374 0.93673 0.68428
 C137 C 0.35073 0.93359 0.65868
 C138 C 0.31756 0.89930 0.59014
 N139 N 0.31474 0.87573 0.56445
 C140 C 0.34052 0.85229 0.56732
 H141 H 0.40505 0.80093 0.57929
 H142 H 0.44835 0.84578 0.66822
 H143 H 0.41838 0.90645 0.69800
 H144 H 0.32926 0.95081 0.65457
 H145 H 0.30035 0.92092 0.59455
 H146 H 0.34499 0.83059 0.55022
 C147 C 0.89046 0.65370 0.38993
 C148 C 0.86130 0.63917 0.40495
 C149 C 0.84606 0.61006 0.39063
 C150 C 0.85956 0.59533 0.36086
 C151 C 0.88832 0.60970 0.34601
 C152 C 0.90372 0.63924 0.36049
 C153 C 0.91088 0.68157 0.39859
 N154 N 0.93585 0.68455 0.37487
 C155 C 0.93166 0.65889 0.35141
 C156 C 0.89611 0.58970 0.31798
 N157 N 0.87258 0.56382 0.31529
 C158 C 0.85004 0.56712 0.34132
 C159 C 0.81859 0.60145 0.41073
 N160 N 0.81660 0.62488 0.43661
 C161 C 0.84257 0.64809 0.43326
 H162 H 0.90769 0.69863 0.42033
 H163 H 0.94803 0.65462 0.32962
 H164 H 0.91721 0.59378 0.30065
 H165 H 0.82866 0.54988 0.34599
 H166 H 0.80102 0.58005 0.40659
 H167 H 0.84762 0.66966 0.45035
 C168 C 0.61060 0.34846 -0.11045
 C169 C 0.64077 0.36228 -0.09671
 C170 C 0.65589 0.39115 -0.11134
 C171 C 0.64127 0.40632 -0.14015
 C172 C 0.61140 0.39277 -0.15360
 C173 C 0.59612 0.36351 -0.13880
 C174 C 0.59028 0.32069 -0.10150
 N175 N 0.56410 0.31834 -0.12398
 C176 C 0.56749 0.34441 -0.14691
 C177 C 0.60277 0.41292 -0.18105
 N178 N 0.62692 0.43800 -0.18477
 C179 C 0.65063 0.43416 -0.15998
 C180 C 0.68431 0.39927 -0.09235
 N181 N 0.68695 0.37583 -0.06682
 C182 C 0.66052 0.35302 -0.06934
 H183 H 0.59455 0.30310 -0.08056
 H184 H 0.55024 0.34924 -0.16780
 H185 H 0.58081 0.40941 -0.19738
 H186 H 0.67283 0.45065 -0.15651
 H187 H 0.70191 0.42053 -0.09686
 H188 H 0.65569 0.33167 -0.05215
 C189 C 0.00312 0.25272 0.15520
 C190 C -0.01555 0.25987 0.12544
 C191 C -0.00740 0.24103 0.09566
 C192 C 0.01883 0.21635 0.09559
 C193 C 0.03684 0.20914 0.12540
 C194 C 0.02864 0.22729 0.15524
 H195 H -0.00230 0.26608 0.17882
 H196 H -0.02062 0.24570 0.07206
 H197 H 0.02479 0.20245 0.07235
 H198 H 0.04242 0.22209 0.17846
 C199 C 0.50138 0.75262 0.59284
 C200 C 0.51233 0.73762 0.62338
 C201 C 0.49726 0.74853 0.65400
 C202 C 0.47200 0.77423 0.65412
 C203 C 0.46086 0.78899 0.62357
 C204 C 0.47563 0.77782 0.59292
 H205 H 0.51241 0.74455 0.56886
 H206 H 0.50537 0.73759 0.67793
 H207 H 0.46080 0.78229 0.67802
 H208 H 0.46757 0.78903 0.56909
 C209 C 1.00697 0.74246 0.40418
 C210 C 1.01474 0.76120 0.37445
 C211 C 0.99568 0.75396 0.34488
 C212 C 0.97015 0.72848 0.34496
 C213 C 0.96236 0.71038 0.37474
 C214 C 0.98074 0.71773 0.40438
 H215 H 1.02049 0.74722 0.42765
 H216 H 1.00078 0.76726 0.32131
 H217 H 0.95608 0.72316 0.32186
 H218 H 0.97509 0.70388 0.42757
 C219 C 0.50018 0.25258 -0.15444
 C220 C 0.48575 0.24131 -0.12375
 C221 C 0.49748 0.25587 -0.09312
 C222 C 0.52342 0.28093 -0.09317
 C223 C 0.53760 0.29239 -0.12388
 C224 C 0.52563 0.27812 -0.15451
 H225 H 0.49148 0.24199 -0.17844
 H226 H 0.48696 0.24751 -0.06908
 H227 H 0.53212 0.29174 -0.06927
 H228 H 0.53638 0.28639 -0.17847
 C229 C 0.15904 0.00155 0.25074
 C230 C 0.12864 -0.01467 0.26115
 C231 C 0.09763 -0.00464 0.24622
 C232 C 0.09701 0.02141 0.22159
 C233 C 0.12745 0.03732 0.21092
 C234 C 0.15848 0.02705 0.22557
 H235 H 0.18330 -0.00584 0.26169
 H236 H 0.07381 -0.01656 0.25393
 H237 H 0.07284 0.02879 0.21045
 H238 H 0.18221 0.03915 0.21783
 C239 C 0.59818 0.50904 -0.24263
 C240 C 0.62785 0.51520 -0.26207
 C241 C 0.65726 0.49527 -0.25512
 C242 C 0.65708 0.47040 -0.22935
 C243 C 0.62731 0.46411 -0.21064
 C244 C 0.59783 0.48341 -0.21759
 H245 H 0.57482 0.52327 -0.24711
 H246 H 0.68080 0.49919 -0.26896
 H247 H 0.68004 0.45560 -0.22432
 H248 H 0.57464 0.47889 -0.20327
 C249 C 0.34207 0.99893 0.75080
 C250 C 0.37267 1.01434 0.76188
 C251 C 0.40363 1.00382 0.74698
 C252 C 0.40400 0.97810 0.72174
 C253 C 0.37337 0.96296 0.71044
 C254 C 0.34239 0.97373 0.72506
 H255 H 0.31783 1.00670 0.76169
 H256 H 0.42762 1.01510 0.75519
 H257 H 0.42815 0.97033 0.71065
 H258 H 0.31850 0.96222 0.71688
 C259 C 0.84028 0.50107 0.24960
 C260 C 0.87068 0.48486 0.23906
 C261 C 0.90170 0.49507 0.25399
 C262 C 0.90235 0.52129 0.27874
 C263 C 0.87192 0.53719 0.28953
 C264 C 0.84086 0.52673 0.27492
 H265 H 0.81601 0.49354 0.23863
 H266 H 0.92552 0.48316 0.24617
 H267 H 0.92654 0.52883 0.28986
 H268 H 0.81714 0.53882 0.28277
 C269 C 0.24930 0.15712 0.00321
 C270 C 0.26061 0.12586 -0.01170
 C271 C 0.24634 0.09420 -0.00092
 C272 C 0.22149 0.09379 0.02456
 C273 C 0.20993 0.12507 0.03917
 C274 C 0.22391 0.15675 0.02816
 H275 H 0.25972 0.18190 -0.00478
 H276 H 0.25475 0.06971 -0.01183
 H277 H 0.21088 0.06910 0.03255
 H278 H 0.21551 0.18114 0.03927
 C279 C 0.75168 0.65720 0.49913
 C280 C 0.74098 0.62598 0.51425
 C281 C 0.75566 0.59440 0.50351
 C282 C 0.78026 0.59401 0.47778
 C283 C 0.79116 0.62525 0.46290
 C284 C 0.77683 0.65686 0.47394
 H285 H 0.74092 0.68191 0.50708
 H286 H 0.74771 0.56995 0.51459
 H287 H 0.79114 0.56939 0.46975
 H288 H 0.78474 0.68122 0.46264
 C289 C 0.74893 0.40657 -0.00078
 C290 C 0.76334 0.37498 0.00991
 C291 C 0.75239 0.34370 -0.00523
 C292 C 0.72712 0.34396 -0.03025
 C293 C 0.71292 0.37556 -0.04110
 C294 C 0.72421 0.40687 -0.02633
 H295 H 0.75706 0.43107 0.01033
 H296 H 0.76293 0.31897 0.00268
 H297 H 0.71889 0.31954 -0.04146
 H298 H 0.71342 0.43150 -0.03418
 C299 C 0.24876 0.84400 0.50284
 C300 C 0.23814 0.87532 0.48792
 C301 C 0.25310 0.90678 0.49862
 C302 C 0.27798 0.90695 0.52403
 C303 C 0.28886 0.87560 0.53864
 C304 C 0.27416 0.84411 0.52772
 H305 H 0.23781 0.81935 0.49490
 H306 H 0.24523 0.93131 0.48768
 H307 H 0.28914 0.93150 0.53195
 H308 H 0.28204 0.81967 0.53881
   
