data_POSCAR
  _audit_creation_date              2014-09-24
  _audit_creation_method            'ToBaCCo'
  _symmetry_space_group_name_H-M    'P1'
  _symmetry_Int_Tables_number       1
  _symmetry_cell_setting            triclinic
  loop_
  _symmetry_equiv_pos_as_xyz
 x,y,z
_cell_length_a 6.5169
_cell_length_b 6.5118
_cell_length_c 16.8624
_cell_angle_alpha 89.666600
_cell_angle_beta 90.383300
_cell_angle_gamma 119.754700
loop_
  _atom_site_label
  _atom_site_type_symbol
  _atom_site_fract_x
  _atom_site_fract_y
  _atom_site_fract_z
Si1 Si 0.00236 -0.00177 0.50058
 Si2 Si 0.99787 0.00126 0.16589
 Si3 Si 0.00328 1.00384 0.83335
 O4 O 0.61827 -0.16589 0.07181
 O5 O 0.20598 -0.16132 -0.07493
 O6 O 0.58699 -0.21887 -0.07997
 O7 O 0.19339 -0.21911 0.07960
 O8 O 0.37245 0.16970 0.07069
 O9 O 0.78537 0.17037 -0.07506
 O10 O 0.40754 0.22707 -0.08298
 O11 O 0.80301 0.22293 0.07792
 Cu12 Cu 0.38229 -0.22460 -0.00191
 Cu13 Cu 0.60983 0.23346 -0.00244
 C14 C 0.78410 0.02723 0.09902
 C15 C 0.23097 0.03116 -0.10293
 C16 C 0.76188 -0.02309 -0.10095
 C17 C 0.20990 -0.02377 0.09915
 O18 O -0.16565 0.61894 0.59458
 O19 O -0.16412 0.20535 0.74155
 O20 O -0.21688 0.58474 0.74805
 O21 O -0.21764 0.18987 0.58858
 O22 O 0.17115 0.37467 0.59534
 O23 O 0.17143 0.78815 0.74115
 O24 O 0.22419 0.40723 0.74948
 O25 O 0.22312 0.80342 0.58862
 Cu26 Cu -0.22656 0.38227 0.66830
 Cu27 Cu 0.23303 0.61047 0.66893
 C28 C 0.02764 0.78450 0.56744
 C29 C 0.02861 0.23069 0.76951
 C30 C -0.02181 0.76239 0.76789
 C31 C -0.02225 0.20966 0.56777
 O32 O 0.21178 0.37605 0.40598
 O33 O 0.62147 0.78765 0.25944
 O34 O 0.18622 0.41345 0.25426
 O35 O 0.58333 0.80502 0.41439
 O36 O 0.79040 0.62240 0.40587
 O37 O 0.37680 0.21328 0.25941
 O38 O 0.81185 0.58752 0.25422
 O39 O 0.41907 0.19327 0.41437
 Cu40 Cu 0.38610 0.61452 0.33297
 Cu41 Cu 0.61409 0.38511 0.33293
 C42 C 0.24095 0.21089 0.43406
 C43 C 0.78899 0.76201 0.23271
 C44 C 0.20855 0.23939 0.23270
 C45 C 0.76203 0.78708 0.43400
   
