data_POSCAR
  _audit_creation_date              2014-09-24
  _audit_creation_method            'ToBaCCo'
  _symmetry_space_group_name_H-M    'P1'
  _symmetry_Int_Tables_number       1
  _symmetry_cell_setting            triclinic
  loop_
  _symmetry_equiv_pos_as_xyz
 x,y,z
_cell_length_a 70.8299
_cell_length_b 70.9067
_cell_length_c 26.7206
_cell_angle_alpha 89.949100
_cell_angle_beta 90.034700
_cell_angle_gamma 120.017300
loop_
  _atom_site_label
  _atom_site_type_symbol
  _atom_site_fract_x
  _atom_site_fract_y
  _atom_site_fract_z
C1 C 0.20752 0.49549 0.45537
 C2 C 0.19730 0.49342 0.50164
 C3 C 0.20732 0.49416 0.54749
 C4 C 0.22811 0.49565 0.54700
 C5 C 0.23875 0.49741 0.50066
 C6 C 0.22842 0.49721 0.45474
 C7 C 0.23833 0.49661 0.40956
 C8 C 0.25837 0.49757 0.40904
 C9 C 0.26917 0.49845 0.45373
 C10 C 0.25926 0.49813 0.50010
 C11 C 0.23749 0.49309 0.59106
 C12 C 0.25752 0.49395 0.59048
 C13 C 0.26924 0.49734 0.54577
 C14 C 0.28953 0.49765 0.54477
 C15 C 0.29871 0.49777 0.49812
 C16 C 0.28900 0.49829 0.45313
 H17 H 0.23036 0.49449 0.37385
 H18 H 0.26496 0.49683 0.37304
 H19 H 0.22901 0.48935 0.62648
 H20 H 0.26312 0.49085 0.62547
 H21 H 0.18186 0.49317 0.50206
 H22 H 0.31430 0.49836 0.49640
 C23 C 0.49928 -0.21046 0.45397
 C24 C 0.49967 -0.20058 0.49947
 C25 C 0.49916 -0.21040 0.54517
 C26 C 0.49822 -0.23081 0.54570
 C27 C 0.49803 -0.24101 0.49985
 C28 C 0.49833 -0.23087 0.45381
 C29 C 0.49642 -0.24192 0.40893
 C30 C 0.49455 -0.26238 0.40904
 C31 C 0.49523 -0.27245 0.45394
 C32 C 0.49650 -0.26184 0.50004
 C33 C 0.49621 -0.24181 0.59075
 C34 C 0.49434 -0.26226 0.59101
 C35 C 0.49512 -0.27240 0.54634
 C36 C 0.49253 -0.29362 0.54642
 C37 C 0.49064 -0.30396 0.50042
 C38 C 0.49264 -0.29368 0.45424
 H39 H 0.49562 -0.23519 0.37316
 H40 H 0.49171 -0.27049 0.37333
 H41 H 0.49533 -0.23505 0.62636
 H42 H 0.49142 -0.27032 0.62683
 H43 H 0.50028 -0.18499 0.49930
 H44 H 0.48965 -0.31974 0.50058
 C45 C 1.21024 0.71216 0.45380
 C46 C 1.19887 0.70408 0.49858
 C47 C 1.20781 0.71376 0.54500
 C48 C 1.22836 0.73343 0.54546
 C49 C 1.24023 0.74170 0.50014
 C50 C 1.23127 0.73074 0.45436
 C51 C 1.24339 0.73881 0.41018
 C52 C 1.26371 0.75759 0.41056
 C53 C 1.27234 0.76980 0.45464
 C54 C 1.26087 0.76130 0.50035
 C55 C 1.23648 0.74610 0.58900
 C56 C 1.25663 0.76513 0.58933
 C57 C 1.26972 0.77248 0.54612
 C58 C 1.29058 0.79168 0.54649
 C59 C 1.30142 0.79982 0.50076
 C60 C 1.29260 0.78970 0.45473
 H61 H 1.23732 0.73067 0.37468
 H62 H 1.27260 0.76226 0.37566
 H63 H 1.22702 0.74187 0.62311
 H64 H 1.26143 0.77435 0.62375
 H65 H 1.18324 0.68913 0.49703
 H66 H 1.31711 0.81470 0.50096
 C67 C 0.70788 0.49589 0.54624
 C68 C 0.69871 0.49619 0.49978
 C69 C 0.70917 0.49752 0.45460
 C70 C 0.72950 0.49838 0.45476
 C71 C 0.73898 0.49752 0.50092
 C72 C 0.72804 0.49592 0.54674
 C73 C 0.73646 0.49219 0.59097
 C74 C 0.75593 0.49189 0.59106
 C75 C 0.76802 0.49524 0.54690
 C76 C 0.75894 0.49718 0.50099
 C77 C 0.74008 0.49905 0.40977
 C78 C 0.75951 0.49872 0.40984
 C79 C 0.76917 0.49771 0.45491
 C80 C 0.78829 0.49619 0.45492
 C81 C 0.79714 0.49450 0.50021
 C82 C 0.78777 0.49449 0.54656
 H83 H 0.72763 0.48845 0.62591
 H84 H 0.76082 0.48797 0.62608
 H85 H 0.73317 0.49932 0.37384
 H86 H 0.76661 0.49875 0.37398
 H87 H 0.68351 0.49640 0.49842
 H88 H 0.81230 0.49421 0.49901
 C89 C 0.49973 0.29022 0.45583
 C90 C 0.49905 0.29932 0.50168
 C91 C 0.49849 0.28924 0.54709
 C92 C 0.49832 0.26920 0.54694
 C93 C 0.49920 0.25979 0.50077
 C94 C 0.49983 0.27031 0.45499
 C95 C 0.49967 0.26025 0.40963
 C96 C 0.49899 0.24031 0.40907
 C97 C 0.49852 0.22967 0.45386
 C98 C 0.49868 0.23947 0.50028
 C99 C 0.49619 0.25781 0.59151
 C100 C 0.49553 0.23787 0.59104
 C101 C 0.49752 0.22864 0.54609
 C102 C 0.49651 0.20804 0.54512
 C103 C 0.49574 0.19854 0.49845
 C104 C 0.49703 0.20907 0.45337
 H105 H 0.49963 0.26746 0.37397
 H106 H 0.49838 0.23310 0.37300
 H107 H 0.49439 0.26391 0.62724
 H108 H 0.49265 0.22947 0.62640
 H109 H 0.49905 0.31462 0.50203
 H110 H 0.49535 0.18306 0.49682
 C111 C 0.70975 0.21170 0.45563
 C112 C 0.69944 0.20304 0.50130
 C113 C 0.70875 0.21324 0.54670
 C114 C 0.72887 0.23306 0.54667
 C115 C 0.73973 0.24195 0.50070
 C116 C 0.73017 0.23117 0.45497
 C117 C 0.74096 0.24043 0.40977
 C118 C 0.76069 0.25994 0.40934
 C119 C 0.77022 0.27114 0.45402
 C120 C 0.75988 0.26197 0.50032
 C121 C 0.73788 0.24470 0.59107
 C122 C 0.75745 0.26438 0.59067
 C123 C 0.76928 0.27303 0.54605
 C124 C 0.78934 0.29325 0.54512
 C125 C 0.79893 0.30202 0.49852
 C126 C 0.78981 0.29134 0.45354
 H127 H 0.73416 0.23280 0.37415
 H128 H 0.76829 0.26626 0.37342
 H129 H 0.72956 0.23899 0.62654
 H130 H 0.76274 0.27300 0.62579
 H131 H 0.68391 0.18794 0.50149
 H132 H 0.81431 0.31724 0.49696
 O133 O 0.97100 0.51866 -0.09278
 O134 O 0.94694 0.48984 -0.04456
 C135 C 0.95136 0.50403 -0.07986
 O136 O 1.03213 0.48220 -0.08722
 O137 O 1.05625 0.51237 -0.04265
 C138 C 1.05181 0.49706 -0.07495
 O139 O 0.97108 0.45337 -0.09202
 O140 O 0.94697 0.45828 -0.04441
 C141 C 0.95143 0.44844 -0.07944
 O142 O 1.03190 0.55079 -0.08874
 O143 O 1.05605 0.54496 -0.04364
 C144 C 1.05157 0.55568 -0.07642
 Zr145 Zr 1.00148 0.52507 -0.06402
 O146 O 1.00385 0.52640 -0.14308
 O147 O 0.99902 0.55362 -0.06301
 Zr148 Zr 1.00154 0.47742 -0.06319
 O149 O 1.00385 0.47791 -0.14220
 O150 O 0.99902 0.44639 -0.06088
 O151 O 0.98205 0.49150 -0.07343
 O152 O 1.02041 0.51067 -0.07305
 O153 O 1.03235 0.55108 0.08620
 O154 O 1.05632 0.54509 0.04085
 C155 C 1.05199 0.55587 0.07365
 O156 O 0.97124 0.45379 0.09196
 O157 O 0.94706 0.45845 0.04394
 C158 C 0.95157 0.44879 0.07932
 O159 O 1.03229 0.48274 0.08703
 O160 O 1.05632 0.51267 0.04158
 C161 C 1.05193 0.49758 0.07456
 O162 O 0.97133 0.51882 0.09170
 O163 O 0.94710 0.48996 0.04387
 C164 C 0.95165 0.50414 0.07921
 Zr165 Zr 1.00169 0.52547 0.06177
 O166 O 1.00406 0.52793 0.14069
 O167 O 0.99915 0.55397 0.05805
 Zr168 Zr 1.00166 0.47776 0.06267
 O169 O 1.00424 0.47874 0.14170
 O170 O 0.99919 0.44674 0.06155
 Zr171 Zr 0.96889 0.48508 -0.00047
 Zr172 Zr 1.03414 0.51769 -0.00086
 O173 O 1.02055 0.51106 0.07146
 O174 O 0.98228 0.49193 0.07229
 O175 O 1.02118 0.53876 -0.00131
 O176 O 0.98249 0.46462 -0.00010
 O177 O 0.98245 0.51912 -0.00100
 O178 O 1.02117 0.48367 -0.00029
 H179 H 1.03013 0.51546 -0.10267
 H180 H 0.97255 0.44864 0.00012
 H181 H 1.03027 0.51598 0.10107
 H182 H 0.97247 0.52512 -0.00094
 H183 H 1.01187 0.44795 -0.04258
 H184 H 1.01213 0.44826 0.04377
 H185 H 0.99222 0.48049 0.15524
 H186 H 0.99385 0.51334 0.15437
 H187 H 1.01268 0.56560 0.04257
 H188 H 1.01166 0.56486 -0.04407
 H189 H 0.99183 0.51253 -0.15627
 H190 H 0.99234 0.48053 -0.15558
 O191 O 0.45377 0.48386 0.09266
 O192 O 0.45851 0.51266 0.04442
 C193 C 0.44882 0.49854 0.07989
 O194 O 0.55112 0.51990 0.08659
 O195 O 0.54496 0.48977 0.04177
 C196 C 0.55585 0.50502 0.07423
 O197 O 0.51910 0.54883 0.09194
 O198 O 0.49011 0.54408 0.04434
 C199 C 0.50441 0.55382 0.07946
 O200 O 0.48224 0.45148 0.08783
 O201 O 0.51213 0.45726 0.04245
 C202 C 0.49701 0.44659 0.07540
 Zr203 Zr 0.47751 0.47718 0.06307
 O204 O 0.47800 0.47520 0.14208
 O205 O 0.44638 0.44871 0.06073
 Zr206 Zr 0.52540 0.52482 0.06262
 O207 O 0.52741 0.52429 0.14158
 O208 O 0.55399 0.55584 0.06031
 O209 O 0.49182 0.51075 0.07288
 O210 O 0.51087 0.49154 0.07220
 O211 O 0.48224 0.45144 -0.08740
 O212 O 0.51230 0.45736 -0.04246
 C213 C 0.49707 0.44660 -0.07512
 O214 O 0.51890 0.54886 -0.09189
 O215 O 0.49006 0.54414 -0.04387
 C216 C 0.50428 0.55388 -0.07909
 O217 O 0.55078 0.51981 -0.08766
 O218 O 0.54472 0.48969 -0.04284
 C219 C 0.55554 0.50494 -0.07544
 O220 O 0.45387 0.48405 -0.09284
 O221 O 0.45850 0.51269 -0.04429
 C222 C 0.44890 0.49871 -0.08002
 Zr223 Zr 0.47730 0.47702 -0.06256
 O224 O 0.47678 0.47422 -0.14138
 O225 O 0.44613 0.44865 -0.05816
 Zr226 Zr 0.52512 0.52467 -0.06319
 O227 O 0.52640 0.52356 -0.14228
 O228 O 0.55379 0.55564 -0.06241
 Zr229 Zr 0.48512 0.51737 0.00010
 Zr230 Zr 0.51757 0.48461 -0.00003
 O231 O 0.51060 0.49139 -0.07226
 O232 O 0.49156 0.51059 -0.07282
 O233 O 0.48351 0.46358 0.00027
 O234 O 0.51920 0.53777 -0.00024
 O235 O 0.46448 0.48335 0.00028
 O236 O 0.53872 0.51864 -0.00037
 H237 H 0.51578 0.48671 0.10175
 H238 H 0.52536 0.55378 -0.00016
 H239 H 0.51537 0.48658 -0.10210
 H240 H 0.44853 0.47751 0.00028
 H241 H 0.56537 0.55419 0.04275
 H242 H 0.56502 0.55423 -0.04349
 H243 H 0.51284 0.52242 -0.15564
 H244 H 0.48249 0.48904 -0.15509
 H245 H 0.44806 0.43684 -0.04388
 H246 H 0.44796 0.43730 0.04316
 H247 H 0.48121 0.48949 0.15554
 H248 H 0.51332 0.52165 0.15521
 O249 O 0.48293 0.02988 0.09271
 O250 O 0.51179 0.05408 0.04479
 C251 C 0.49760 0.04954 0.08015
 O252 O 0.51935 -0.03097 0.08697
 O253 O 0.48930 -0.05501 0.04199
 C254 C 0.50455 -0.05060 0.07456
 O255 O 0.54803 0.02981 0.09227
 O256 O 0.54328 0.05406 0.04477
 C257 C 0.55299 0.04948 0.07997
 O258 O 0.45049 -0.03094 0.08708
 O259 O 0.45657 -0.05495 0.04225
 C260 C 0.44571 -0.05055 0.07476
 Zr261 Zr 0.47635 -0.00049 0.06306
 O262 O 0.47411 -0.00294 0.14205
 O263 O 0.44719 0.00067 0.05749
 Zr264 Zr 0.52410 -0.00047 0.06273
 O265 O 0.52348 -0.00296 0.14176
 O266 O 0.55522 0.00215 0.06030
 O267 O 0.50994 0.01889 0.07299
 O268 O 0.49078 -0.01938 0.07215
 O269 O 0.45029 -0.03073 -0.08641
 O270 O 0.45646 -0.05484 -0.04221
 C271 C 0.44552 -0.05038 -0.07438
 O272 O 0.54794 0.03017 -0.09222
 O273 O 0.54327 0.05420 -0.04382
 C274 C 0.55295 0.04979 -0.07930
 O275 O 0.51914 -0.03082 -0.08764
 O276 O 0.48907 -0.05498 -0.04267
 C277 C 0.50431 -0.05050 -0.07530
 O278 O 0.48275 0.03015 -0.09153
 O279 O 0.51178 0.05420 -0.04385
 C280 C 0.49756 0.04977 -0.07911
 Zr281 Zr 0.47631 -0.00028 -0.06253
 O282 O 0.47460 -0.00261 -0.14157
 O283 O 0.44761 0.00197 -0.06040
 Zr284 Zr 0.52400 -0.00031 -0.06307
 O285 O 0.52325 -0.00270 -0.14211
 O286 O 0.55507 0.00221 -0.06153
 Zr287 Zr 0.51657 0.03229 0.00030
 Zr288 Zr 0.48393 -0.03296 -0.00008
 O289 O 0.49067 -0.01919 -0.07221
 O290 O 0.50987 0.01912 -0.07264
 O291 O 0.46291 -0.01998 0.00023
 O292 O 0.53706 0.01873 -0.00007
 O293 O 0.48252 0.01881 0.00044
 O294 O 0.51800 -0.01995 -0.00028
 H295 H 0.48590 -0.02914 0.10168
 H296 H 0.55306 0.02869 -0.00007
 H297 H 0.48575 -0.02888 -0.10183
 H298 H 0.47649 0.02877 0.00051
 H299 H 0.55361 -0.01091 0.04304
 H300 H 0.55352 -0.01068 -0.04349
 H301 H 0.52067 0.00882 -0.15550
 H302 H 0.48859 0.00913 -0.15502
 H303 H 0.43739 -0.00929 -0.03682
 H304 H 0.44233 0.00056 0.09231
 H305 H 0.48842 0.00803 0.15574
 H306 H 0.52085 0.00851 0.15524
 C307 C 1.19551 0.51386 0.33390
 C308 C 1.17317 0.49909 0.32909
 C309 C 1.16246 0.48296 0.36534
 C310 C 1.17391 0.48161 0.40637
 C311 C 1.19646 0.49624 0.41178
 C312 C 1.20707 0.51252 0.37501
 C313 C 1.16078 0.50068 0.28825
 C314 C 1.14936 0.50131 0.25559
 C315 C 1.13486 0.50130 0.21934
 C316 C 1.12155 0.50068 0.19024
 C317 C 1.10461 0.49926 0.15796
 C318 C 1.08333 0.48192 0.16393
 C319 C 1.06632 0.48109 0.13578
 C320 C 1.07034 0.49766 0.10115
 C321 C 1.09192 0.51478 0.09441
 C322 C 1.10894 0.51558 0.12276
 H323 H 1.20390 0.52663 0.30640
 H324 H 1.14515 0.47150 0.36214
 H325 H 1.16512 0.46883 0.43363
 H326 H 1.22412 0.52474 0.37897
 H327 H 1.07977 0.46924 0.19117
 H328 H 1.04996 0.46768 0.14194
 H329 H 1.09558 0.52783 0.06820
 H330 H 1.12536 0.52912 0.11797
 C331 C 0.51003 0.69344 0.33275
 C332 C 0.49493 0.67119 0.32843
 C333 C 0.47864 0.66090 0.36453
 C334 C 0.47760 0.67265 0.40525
 C335 C 0.49271 0.69508 0.41043
 C336 C 0.50898 0.70531 0.37346
 C337 C 0.49679 0.65841 0.28898
 C338 C 0.49814 0.64693 0.25762
 C339 C 0.49958 0.63273 0.22287
 C340 C 0.50079 0.62005 0.19490
 C341 C 0.50233 0.60436 0.16361
 C342 C 0.51876 0.59932 0.17261
 C343 C 0.51960 0.58310 0.14479
 C344 C 0.50397 0.57163 0.10743
 C345 C 0.48768 0.57703 0.09812
 C346 C 0.48686 0.59328 0.12612
 H347 H 0.52294 0.70148 0.30542
 H348 H 0.46694 0.64365 0.36171
 H349 H 0.46481 0.66417 0.43266
 H350 H 0.52152 0.72224 0.37718
 H351 H 0.53074 0.60772 0.20171
 H352 H 0.53237 0.57939 0.15307
 H353 H 0.47536 0.56850 0.06977
 H354 H 0.47400 0.59698 0.11901
 C355 C 0.33883 -0.17825 0.36696
 C356 C 0.32814 -0.17494 0.32688
 C357 C 0.30548 -0.18402 0.32820
 C358 C 0.29358 -0.19618 0.36978
 C359 C 0.30417 -0.19961 0.41062
 C360 C 0.32703 -0.19034 0.40849
 C361 C 0.34076 -0.16113 0.28606
 C362 C 0.35204 -0.14890 0.25353
 C363 C 0.36601 -0.13381 0.21748
 C364 C 0.37850 -0.12026 0.18855
 C365 C 0.39402 -0.10327 0.15641
 C366 C 0.40611 -0.10757 0.12147
 C367 C 0.42255 -0.09052 0.09365
 C368 C 0.42715 -0.06895 0.10074
 C369 C 0.41447 -0.06495 0.13502
 C370 C 0.39808 -0.08199 0.16264
 H371 H 0.35639 -0.17118 0.36648
 H372 H 0.29708 -0.18125 0.29768
 H373 H 0.27622 -0.20208 0.37086
 H374 H 0.33583 -0.19265 0.43884
 H375 H 0.40316 -0.12399 0.11657
 H376 H 0.43198 -0.09419 0.06760
 H377 H 0.41750 -0.04859 0.14135
 H378 H 0.38889 -0.07847 0.18976
 C379 C 0.81353 0.47795 0.35539
 C380 C 0.82506 0.49696 0.32693
 C381 C 0.82354 0.51542 0.33863
 C382 C 0.81090 0.51500 0.37933
 C383 C 0.79967 0.49609 0.40852
 C384 C 0.80093 0.47753 0.39604
 C385 C 0.83964 0.49791 0.28823
 C386 C 0.85237 0.49863 0.25733
 C387 C 0.86791 0.49951 0.22294
 C388 C 0.88175 0.50041 0.19517
 C389 C 0.89897 0.50178 0.16404
 C390 C 0.92045 0.51820 0.17291
 C391 C 0.93751 0.51910 0.14492
 C392 C 0.93335 0.50354 0.10748
 C393 C 0.91164 0.48720 0.09836
 C394 C 0.89456 0.48633 0.12654
 H395 H 0.81473 0.46364 0.34695
 H396 H 0.83257 0.53028 0.31715
 H397 H 0.81034 0.52955 0.38893
 H398 H 0.79253 0.46289 0.41851
 H399 H 0.92406 0.53019 0.20197
 H400 H 0.95399 0.53188 0.15304
 H401 H 0.90785 0.47492 0.06997
 H402 H 0.87799 0.47349 0.11951
 C403 C 0.51844 0.32429 0.33751
 C404 C 0.50041 0.32680 0.32733
 C405 C 0.48192 0.31659 0.35796
 C406 C 0.48156 0.30423 0.39904
 C407 C 0.49966 0.30185 0.40981
 C408 C 0.51808 0.31187 0.37866
 C409 C 0.50114 0.34080 0.28741
 C410 C 0.50124 0.35286 0.25543
 C411 C 0.50079 0.36734 0.21976
 C412 C 0.49998 0.38001 0.19098
 C413 C 0.49852 0.39554 0.15881
 C414 C 0.48123 0.39954 0.16492
 C415 C 0.48043 0.41573 0.13676
 C416 C 0.49697 0.42822 0.10198
 C417 C 0.51401 0.42366 0.09508
 C418 C 0.51479 0.40745 0.12344
 H419 H 0.53289 0.33227 0.31429
 H420 H 0.46795 0.31856 0.35068
 H421 H 0.46730 0.29675 0.42293
 H422 H 0.53228 0.31042 0.38685
 H423 H 0.46858 0.39044 0.19227
 H424 H 0.46707 0.41874 0.14301
 H425 H 0.52704 0.43298 0.06876
 H426 H 0.52830 0.40454 0.11854
 C427 C 0.69326 0.17607 0.34002
 C428 C 0.67350 0.17501 0.32781
 C429 C 0.66629 0.18685 0.35591
 C430 C 0.67850 0.19931 0.39667
 C431 C 0.69811 0.20014 0.40958
 C432 C 0.70553 0.18858 0.38083
 C433 C 0.65978 0.16062 0.28895
 C434 C 0.64764 0.14804 0.25797
 C435 C 0.63279 0.13267 0.22357
 C436 C 0.61968 0.11896 0.19585
 C437 C 0.60363 0.10184 0.16485
 C438 C 0.59844 0.08033 0.17357
 C439 C 0.58215 0.06338 0.14560
 C440 C 0.57075 0.06767 0.10831
 C441 C 0.57620 0.08940 0.09943
 C442 C 0.59254 0.10638 0.12760
 H443 H 0.69890 0.16682 0.31880
 H444 H 0.65096 0.18603 0.34706
 H445 H 0.67248 0.20798 0.41880
 H446 H 0.72049 0.18885 0.39076
 H447 H 0.60682 0.07661 0.20248
 H448 H 0.57837 0.04688 0.15362
 H449 H 0.56768 0.09327 0.07122
 H450 H 0.59635 0.12297 0.12072
 C451 C 0.48415 0.16211 -0.36785
 C452 C 0.49953 0.17269 -0.33006
 C453 C 0.51344 0.19526 -0.33240
 C454 C 0.51212 0.20717 -0.37279
 C455 C 0.49675 0.19665 -0.41143
 C456 C 0.48283 0.17389 -0.40818
 C457 C 0.50135 0.15993 -0.29036
 C458 C 0.50219 0.14820 -0.25883
 C459 C 0.50238 0.13334 -0.22390
 C460 C 0.50188 0.11977 -0.19584
 C461 C 0.50048 0.10256 -0.16457
 C462 C 0.51588 0.10688 -0.12693
 C463 C 0.51481 0.08977 -0.09848
 C464 C 0.49831 0.06812 -0.10744
 C465 C 0.48280 0.06406 -0.14503
 C466 C 0.48389 0.08115 -0.17328
 H467 H 0.47332 0.14463 -0.36651
 H468 H 0.52563 0.20358 -0.30366
 H469 H 0.52379 0.22444 -0.37490
 H470 H 0.47068 0.16516 -0.43676
 H471 H 0.52883 0.12341 -0.11994
 H472 H 0.52705 0.09347 -0.06998
 H473 H 0.46991 0.04764 -0.15310
 H474 H 0.47192 0.07760 -0.20241
 C475 C 0.66220 0.48373 -0.36590
 C476 C 0.67325 0.49789 -0.32637
 C477 C 0.69596 0.51103 -0.32816
 C478 C 0.70756 0.51009 -0.36959
 C479 C 0.69660 0.49589 -0.40988
 C480 C 0.67369 0.48280 -0.40730
 C481 C 0.66092 0.49954 -0.28553
 C482 C 0.64974 0.50069 -0.25309
 C483 C 0.63575 0.50189 -0.21726
 C484 C 0.62315 0.50291 -0.18860
 C485 C 0.60746 0.50423 -0.15683
 C486 C 0.59528 0.48774 -0.12215
 C487 C 0.57871 0.48820 -0.09462
 C488 C 0.57406 0.50515 -0.10169
 C489 C 0.58679 0.52190 -0.13585
 C490 C 0.60334 0.52142 -0.16317
 H491 H 0.64460 0.47355 -0.36506
 H492 H 0.70464 0.52235 -0.29810
 H493 H 0.72500 0.52114 -0.37102
 H494 H 0.66462 0.47154 -0.43713
 H495 H 0.59823 0.47427 -0.11718
 H496 H 0.56922 0.47505 -0.06872
 H497 H 0.58373 0.53522 -0.14230
 H498 H 0.61256 0.53420 -0.19015
 C499 C 0.81676 0.30706 -0.32954
 C500 C 0.82569 0.32969 -0.32897
 C501 C 0.82196 0.34001 -0.36918
 C502 C 0.80960 0.32789 -0.41006
 C503 C 0.80044 0.30506 -0.41139
 C504 C 0.80429 0.29482 -0.37046
 C505 C 0.83979 0.34272 -0.28891
 C506 C 0.85226 0.35441 -0.25719
 C507 C 0.86761 0.36888 -0.22218
 C508 C 0.88138 0.38174 -0.19416
 C509 C 0.89860 0.39760 -0.16301
 C510 C 0.92008 0.40258 -0.17175
 C511 C 0.93718 0.41890 -0.14413
 C512 C 0.93307 0.43054 -0.10718
 C513 C 0.91137 0.42520 -0.09809
 C514 C 0.89425 0.40884 -0.12591
 H515 H 0.81988 0.29895 -0.29896
 H516 H 0.82889 0.35753 -0.36934
 H517 H 0.80700 0.33641 -0.44056
 H518 H 0.79848 0.27750 -0.37102
 H519 H 0.92365 0.39405 -0.20051
 H520 H 0.95364 0.42254 -0.15222
 H521 H 0.90763 0.43387 -0.07005
 H522 H 0.87769 0.40518 -0.11897
 C523 C 0.51682 -0.17825 -0.33391
 C524 C 0.49936 -0.17462 -0.32545
 C525 C 0.48152 -0.18350 -0.35812
 C526 C 0.48127 -0.19560 -0.39957
 C527 C 0.49884 -0.19903 -0.40866
 C528 C 0.51657 -0.19040 -0.37542
 C529 C 0.50023 -0.16069 -0.28530
 C530 C 0.50087 -0.14845 -0.25318
 C531 C 0.50162 -0.13344 -0.21748
 C532 C 0.50238 -0.11995 -0.18882
 C533 C 0.50356 -0.10302 -0.15702
 C534 C 0.48709 -0.10744 -0.12220
 C535 C 0.48757 -0.09045 -0.09442
 C536 C 0.50453 -0.06883 -0.10140
 C537 C 0.52127 -0.06473 -0.13559
 C538 C 0.52076 -0.08169 -0.16315
 H539 H 0.53079 -0.17132 -0.30909
 H540 H 0.46800 -0.18068 -0.35212
 H541 H 0.46753 -0.20206 -0.42502
 H542 H 0.53035 -0.19272 -0.38224
 H543 H 0.47366 -0.12390 -0.11725
 H544 H 0.47439 -0.09420 -0.06853
 H545 H 0.53457 -0.04833 -0.14189
 H546 H 0.53357 -0.07808 -0.19005
 C547 C 0.32421 0.48654 -0.36877
 C548 C 0.32785 0.50110 -0.32982
 C549 C 0.31812 0.51408 -0.33131
 C550 C 0.30494 0.51263 -0.37199
 C551 C 0.30126 0.49808 -0.41176
 C552 C 0.31119 0.48510 -0.40937
 C553 C 0.34229 0.50298 -0.28972
 C554 C 0.35483 0.50381 -0.25808
 C555 C 0.36991 0.50393 -0.22330
 C556 C 0.38303 0.50335 -0.19553
 C557 C 0.39894 0.50188 -0.16470
 C558 C 0.41003 0.51712 -0.12685
 C559 C 0.42613 0.51599 -0.09876
 C560 C 0.43135 0.49959 -0.10830
 C561 C 0.41991 0.48424 -0.14612
 C562 C 0.40385 0.48540 -0.17402
 H563 H 0.33169 0.47643 -0.36808
 H564 H 0.32107 0.52564 -0.30164
 H565 H 0.29844 0.52357 -0.37334
 H566 H 0.30865 0.47355 -0.43877
 H567 H 0.40641 0.52999 -0.11939
 H568 H 0.43465 0.52811 -0.07003
 H569 H 0.42347 0.47140 -0.15453
 H570 H 0.39541 0.47354 -0.20330
 C571 C 1.19530 0.68743 -0.32847
 C572 C 1.17257 0.67759 -0.32757
 C573 C 1.16167 0.68050 -0.36781
 C574 C 1.17333 0.69288 -0.40915
 C575 C 1.19627 0.70285 -0.41099
 C576 C 1.20707 0.69991 -0.36983
 C577 C 1.16007 0.66362 -0.28683
 C578 C 1.14864 0.65137 -0.25447
 C579 C 1.13418 0.63651 -0.21871
 C580 C 1.12092 0.62346 -0.19010
 C581 C 1.10402 0.60752 -0.15847
 C582 C 1.08264 0.60330 -0.16448
 C583 C 1.06570 0.58681 -0.13686
 C584 C 1.06987 0.57420 -0.10273
 C585 C 1.09152 0.57889 -0.09599
 C586 C 1.10849 0.59543 -0.12383
 H587 H 1.20389 0.68503 -0.29779
 H588 H 1.14405 0.67292 -0.36756
 H589 H 1.16433 0.69485 -0.43955
 H590 H 1.22454 0.70637 -0.37057
 H591 H 1.07898 0.61249 -0.19133
 H592 H 1.04927 0.58372 -0.14296
 H593 H 1.09530 0.56949 -0.07009
 H594 H 1.12498 0.59850 -0.11902
 C595 C 0.81528 0.50928 -0.32830
 C596 C 0.82432 0.49568 -0.32665
 C597 C 0.82048 0.48117 -0.36583
 C598 C 0.80799 0.48044 -0.40692
 C599 C 0.79882 0.49410 -0.40952
 C600 C 0.80265 0.50853 -0.36942
 C601 C 0.83871 0.49736 -0.28668
 C602 C 0.85143 0.49855 -0.25514
 C603 C 0.86704 0.49979 -0.22049
 C604 C 0.88098 0.50084 -0.19282
 C605 C 0.89833 0.50222 -0.16210
 C606 C 0.91977 0.51869 -0.17121
 C607 C 0.93696 0.51941 -0.14405
 C608 C 0.93296 0.50361 -0.10727
 C609 C 0.91128 0.48726 -0.09783
 C610 C 0.89409 0.48657 -0.12518
 H611 H 0.81846 0.52084 -0.29848
 H612 H 0.82747 0.47063 -0.36506
 H613 H 0.80532 0.46897 -0.43661
 H614 H 0.79676 0.51998 -0.37086
 H615 H 0.92325 0.53082 -0.19989
 H616 H 0.95341 0.53223 -0.15233
 H617 H 0.90762 0.47483 -0.06989
 H618 H 0.87754 0.47366 -0.11804
 C619 C 0.48033 0.31582 -0.35652
 C620 C 0.49808 0.32475 -0.32356
 C621 C 0.51552 0.32104 -0.33144
 C622 C 0.51538 0.30881 -0.37271
 C623 C 0.49778 0.30021 -0.40637
 C624 C 0.48019 0.30365 -0.39775
 C625 C 0.49885 0.33879 -0.28371
 C626 C 0.49922 0.35101 -0.25188
 C627 C 0.49925 0.36582 -0.21655
 C628 C 0.49886 0.37884 -0.18819
 C629 C 0.49783 0.39477 -0.15674
 C630 C 0.51421 0.40671 -0.12158
 C631 C 0.51377 0.42329 -0.09403
 C632 C 0.49694 0.42813 -0.10142
 C633 C 0.48034 0.41566 -0.13604
 C634 C 0.48081 0.39916 -0.16344
 H635 H 0.46681 0.31868 -0.35100
 H636 H 0.52941 0.32801 -0.30641
 H637 H 0.52919 0.30650 -0.37913
 H638 H 0.46655 0.29722 -0.42349
 H639 H 0.52749 0.40348 -0.11609
 H640 H 0.52682 0.43255 -0.06769
 H641 H 0.46712 0.41887 -0.14256
 H642 H 0.46807 0.39005 -0.19060
 C643 C 0.69337 0.18181 -0.33141
 C644 C 0.67196 0.17757 -0.32504
 C645 C 0.66319 0.18624 -0.35883
 C646 C 0.67553 0.19859 -0.39959
 C647 C 0.69680 0.20245 -0.40687
 C648 C 0.70575 0.19419 -0.37221
 C649 C 0.65835 0.16295 -0.28639
 C650 C 0.64640 0.15006 -0.25566
 C651 C 0.63185 0.13429 -0.22156
 C652 C 0.61901 0.12026 -0.19403
 C653 C 0.60327 0.10287 -0.16311
 C654 C 0.59854 0.08152 -0.17207
 C655 C 0.58240 0.06431 -0.14431
 C656 C 0.57071 0.06821 -0.10711
 C657 C 0.57582 0.08981 -0.09781
 C658 C 0.59198 0.10702 -0.12574
 H659 H 0.70025 0.17502 -0.30572
 H660 H 0.64660 0.18294 -0.35447
 H661 H 0.66834 0.20471 -0.42619
 H662 H 0.72203 0.19677 -0.37768
 H663 H 0.60713 0.07812 -0.20103
 H664 H 0.57894 0.04792 -0.15246
 H665 H 0.56712 0.09340 -0.06953
 H666 H 0.59546 0.12349 -0.11864
 C667 C 1.16223 0.48111 -0.36222
 C668 C 1.17320 0.49634 -0.32440
 C669 C 1.19574 0.51038 -0.32789
 C670 C 1.20723 0.50934 -0.36945
 C671 C 1.19632 0.49413 -0.40811
 C672 C 1.17361 0.48007 -0.40371
 C673 C 1.16085 0.49799 -0.28359
 C674 C 1.14944 0.49880 -0.25121
 C675 C 1.13491 0.49908 -0.21551
 C676 C 1.12156 0.49875 -0.18703
 C677 C 1.10455 0.49768 -0.15561
 C678 C 1.10893 0.51406 -0.12064
 C679 C 1.09186 0.51362 -0.09324
 C680 C 1.07020 0.49680 -0.10075
 C681 C 1.06612 0.48016 -0.13510
 C682 C 1.08316 0.48063 -0.16229
 H683 H 1.14477 0.47021 -0.36000
 H684 H 1.20434 0.52245 -0.29913
 H685 H 1.22446 0.52110 -0.37237
 H686 H 1.16460 0.46804 -0.43230
 H687 H 1.12543 0.52738 -0.11528
 H688 H 1.09558 0.52668 -0.06706
 H689 H 1.04969 0.46695 -0.14176
 H690 H 1.07957 0.46791 -0.18938
 C691 C 0.47851 0.66109 -0.36335
 C692 C 0.49471 0.67147 -0.32711
 C693 C 0.50971 0.69374 -0.33144
 C694 C 0.50870 0.70554 -0.37239
 C695 C 0.49253 0.69522 -0.40952
 C696 C 0.47747 0.67278 -0.40423
 C697 C 0.49660 0.65875 -0.28752
 C698 C 0.49796 0.64729 -0.25609
 C699 C 0.49940 0.63308 -0.22134
 C700 C 0.50061 0.62038 -0.19343
 C701 C 0.50216 0.60465 -0.16229
 C702 C 0.51875 0.59983 -0.17108
 C703 C 0.51960 0.58354 -0.14352
 C704 C 0.50382 0.57178 -0.10666
 C705 C 0.48738 0.57699 -0.09749
 C706 C 0.48655 0.59331 -0.12523
 H707 H 0.46688 0.64382 -0.36050
 H708 H 0.52254 0.70186 -0.30392
 H709 H 0.52119 0.72249 -0.37613
 H710 H 0.46472 0.66425 -0.43171
 H711 H 0.53084 0.60844 -0.19986
 H712 H 0.53249 0.58001 -0.15156
 H713 H 0.47495 0.56825 -0.06948
 H714 H 0.47356 0.59684 -0.11832
 C715 C 0.31486 -0.19586 -0.32477
 C716 C 0.32527 -0.17309 -0.32479
 C717 C 0.32359 -0.16219 -0.36660
 C718 C 0.31180 -0.17386 -0.40847
 C719 C 0.30119 -0.19682 -0.40931
 C720 C 0.30293 -0.20767 -0.36672
 C721 C 0.33855 -0.16050 -0.28328
 C722 C 0.35032 -0.14879 -0.25063
 C723 C 0.36475 -0.13390 -0.21487
 C724 C 0.37756 -0.12033 -0.18643
 C725 C 0.39340 -0.10321 -0.15504
 C726 C 0.39772 -0.08186 -0.16211
 C727 C 0.41429 -0.06476 -0.13495
 C728 C 0.42686 -0.06875 -0.10027
 C729 C 0.42204 -0.09037 -0.09251
 C730 C 0.40544 -0.10747 -0.11985
 H731 H 0.31631 -0.20446 -0.29281
 H732 H 0.33162 -0.14456 -0.36709
 H733 H 0.31071 -0.16487 -0.44007
 H734 H 0.29581 -0.22520 -0.36658
 H735 H 0.38858 -0.07836 -0.18946
 H736 H 0.41748 -0.04837 -0.14195
 H737 H 0.43140 -0.09402 -0.06619
 H738 H 0.40230 -0.12392 -0.11427
 C739 C 0.48155 -0.18402 0.35617
 C740 C 0.49952 -0.17499 0.32388
 C741 C 0.51711 -0.17834 0.33298
 C742 C 0.51687 -0.19039 0.37472
 C743 C 0.49901 -0.19918 0.40758
 C744 C 0.48130 -0.19603 0.39786
 C745 C 0.50044 -0.16107 0.28361
 C746 C 0.50115 -0.14880 0.25147
 C747 C 0.50200 -0.13370 0.21585
 C748 C 0.50283 -0.12015 0.18728
 C749 C 0.50402 -0.10318 0.15559
 C750 C 0.52115 -0.08183 0.16195
 C751 C 0.52158 -0.06484 0.13464
 C752 C 0.50480 -0.06894 0.10053
 C753 C 0.48788 -0.09055 0.09344
 C754 C 0.48749 -0.10756 0.12095
 H755 H 0.46793 -0.18140 0.34970
 H756 H 0.53118 -0.17125 0.30847
 H757 H 0.53075 -0.19249 0.38203
 H758 H 0.46746 -0.20262 0.42304
 H759 H 0.53395 -0.07825 0.18891
 H760 H 0.53483 -0.04842 0.14109
 H761 H 0.47467 -0.09427 0.06767
 H762 H 0.47406 -0.12401 0.11597
 C763 C 0.32282 0.51784 0.33477
 C764 C 0.32585 0.50016 0.32439
 C765 C 0.31565 0.48144 0.35426
 C766 C 0.30297 0.48058 0.39509
 C767 C 0.30027 0.49841 0.40639
 C768 C 0.31007 0.51698 0.37567
 C769 C 0.34056 0.50157 0.28556
 C770 C 0.35329 0.50223 0.25475
 C771 C 0.36860 0.50239 0.22072
 C772 C 0.38193 0.50198 0.19345
 C773 C 0.39811 0.50083 0.16312
 C774 C 0.40303 0.48434 0.17220
 C775 C 0.41935 0.48349 0.14479
 C776 C 0.43105 0.49916 0.10772
 C777 C 0.42581 0.51558 0.09837
 C778 C 0.40944 0.51640 0.12599
 H779 H 0.33078 0.53247 0.31212
 H780 H 0.31800 0.46774 0.34679
 H781 H 0.29565 0.46622 0.41867
 H782 H 0.30834 0.53096 0.38428
 H783 H 0.39440 0.47224 0.20093
 H784 H 0.42291 0.47062 0.15302
 H785 H 0.43450 0.52793 0.07018
 H786 H 0.40578 0.52927 0.11876
 C787 C 1.19423 0.67510 0.34073
 C788 C 1.17573 0.67566 0.32419
 C789 C 1.16924 0.68893 0.34870
 C790 C 1.18092 0.70129 0.39008
 C791 C 1.19928 0.70058 0.40721
 C792 C 1.20596 0.68751 0.38218
 C793 C 1.16249 0.66165 0.28428
 C794 C 1.15055 0.64960 0.25230
 C795 C 1.13561 0.63513 0.21668
 C796 C 1.12206 0.62246 0.18800
 C797 C 1.10497 0.60696 0.15604
 C798 C 1.08370 0.60301 0.16250
 C799 C 1.06658 0.58681 0.13470
 C800 C 1.07047 0.57424 0.09991
 C801 C 1.09204 0.57873 0.09263
 C802 C 1.10917 0.59497 0.12065
 H803 H 1.19929 0.66475 0.32231
 H804 H 1.15486 0.68934 0.33650
 H805 H 1.17545 0.71113 0.40934
 H806 H 1.21994 0.68660 0.39541
 H807 H 1.08025 0.61215 0.18990
 H808 H 1.05024 0.58385 0.14123
 H809 H 1.09562 0.56937 0.06622
 H810 H 1.12558 0.59786 0.11544
 C811 C 0.51682 0.19412 0.33653
 C812 C 0.49879 0.17376 0.32525
 C813 C 0.47976 0.16570 0.35395
 C814 C 0.47893 0.17766 0.39454
 C815 C 0.49710 0.19786 0.40670
 C816 C 0.51599 0.20614 0.37716
 C817 C 0.50013 0.16030 0.28671
 C818 C 0.50080 0.14819 0.25607
 C819 C 0.50102 0.13307 0.22211
 C820 C 0.50069 0.11939 0.19476
 C821 C 0.49963 0.10218 0.16419
 C822 C 0.48308 0.08073 0.17276
 C823 C 0.48230 0.06368 0.14506
 C824 C 0.49812 0.06782 0.10822
 C825 C 0.51457 0.08950 0.09937
 C826 C 0.51532 0.10657 0.12727
 H827 H 0.53169 0.20042 0.31485
 H828 H 0.46577 0.14990 0.34580
 H829 H 0.46433 0.17095 0.41727
 H830 H 0.53026 0.22155 0.38653
 H831 H 0.47087 0.07715 0.20129
 H832 H 0.46938 0.04723 0.15287
 H833 H 0.52701 0.09326 0.07136
 H834 H 0.52823 0.12312 0.12040
 C835 C 0.69454 0.51713 0.33681
 C836 C 0.67447 0.49888 0.32455
 C837 C 0.66632 0.47993 0.35353
 C838 C 0.67797 0.47935 0.39512
 C839 C 0.69794 0.49768 0.40800
 C840 C 0.70623 0.51656 0.37845
 C841 C 0.66152 0.49996 0.28435
 C842 C 0.65002 0.50076 0.25215
 C843 C 0.63584 0.50166 0.21634
 C844 C 0.62325 0.50258 0.18748
 C845 C 0.60769 0.50399 0.15536
 C846 C 0.60366 0.52124 0.16156
 C847 C 0.58718 0.52183 0.13419
 C848 C 0.57441 0.50512 0.10015
 C849 C 0.57895 0.48808 0.09312
 C850 C 0.59549 0.48753 0.12069
 H851 H 0.70091 0.53191 0.31482
 H852 H 0.65075 0.46575 0.34461
 H853 H 0.67129 0.46473 0.41782
 H854 H 0.72150 0.53092 0.38826
 H855 H 0.61286 0.53397 0.18858
 H856 H 0.58419 0.53519 0.14057
 H857 H 0.56942 0.47494 0.06726
 H858 H 0.59841 0.47402 0.11583
 C859 C 0.83466 0.31721 0.35728
 C860 C 0.82631 0.32679 0.32488
 C861 C 0.80534 0.32356 0.33277
 C862 C 0.79299 0.31124 0.37370
 C863 C 0.80156 0.30207 0.40692
 C864 C 0.82237 0.30495 0.39816
 C865 C 0.84002 0.34118 0.28602
 C866 C 0.85232 0.35372 0.25519
 C867 C 0.86762 0.36885 0.22112
 C868 C 0.88142 0.38208 0.19374
 C869 C 0.89871 0.39816 0.16315
 C870 C 0.89439 0.40941 0.12596
 C871 C 0.91153 0.42572 0.09810
 C872 C 0.93322 0.43100 0.10728
 C873 C 0.93730 0.41939 0.14439
 C874 C 0.92017 0.40311 0.17205
 H875 H 0.85092 0.31973 0.35175
 H876 H 0.79879 0.33104 0.30815
 H877 H 0.77706 0.30938 0.38037
 H878 H 0.82925 0.29812 0.42372
 H879 H 0.87783 0.40573 0.11886
 H880 H 0.90781 0.43435 0.06989
 H881 H 0.95375 0.42297 0.15247
 H882 H 0.92370 0.39454 0.20084
   
