data_POSCAR
  _audit_creation_date              2014-09-24
  _audit_creation_method            'ToBaCCo'
  _symmetry_space_group_name_H-M    'P1'
  _symmetry_Int_Tables_number       1
  _symmetry_cell_setting            triclinic
  loop_
  _symmetry_equiv_pos_as_xyz
 x,y,z
_cell_length_a 38.9739
_cell_length_b 35.0139
_cell_length_c 18.3493
_cell_angle_alpha 90.474800
_cell_angle_beta 89.786500
_cell_angle_gamma 90.124700
loop_
  _atom_site_label
  _atom_site_type_symbol
  _atom_site_fract_x
  _atom_site_fract_y
  _atom_site_fract_z
O1 O 0.74560 0.19077 0.56030
 O2 O 0.71359 0.25399 0.41802
 O3 O 0.76357 0.20399 0.42558
 O4 O 0.69985 0.24535 0.55458
 O5 O 0.73865 0.28798 0.58871
 O6 O 0.80078 0.24831 0.45929
 O7 O 0.75094 0.29849 0.45022
 O8 O 0.78388 0.23428 0.59263
 Cu9 Cu 0.72695 0.21911 0.48609
 Cu10 Cu 0.77232 0.27176 0.52557
 C11 C 0.77022 0.20152 0.60051
 C12 C 0.72604 0.28721 0.41082
 C13 C 0.79336 0.21896 0.42175
 C14 C 0.70888 0.27371 0.59390
 O15 O 0.21578 0.76162 0.41126
 O16 O 0.24688 0.69748 0.55163
 O17 O 0.20837 0.75862 0.55245
 O18 O 0.26306 0.70816 0.41511
 O19 O 0.30439 0.74978 0.43819
 O20 O 0.25219 0.79686 0.57592
 O21 O 0.29070 0.73594 0.57328
 O22 O 0.25740 0.80275 0.43432
 Cu23 Cu 0.22931 0.72767 0.48012
 Cu24 Cu 0.28022 0.77529 0.50775
 C25 C 0.23050 0.79321 0.39927
 C26 C 0.27427 0.70508 0.58561
 C27 C 0.22167 0.78638 0.58796
 C28 C 0.29350 0.72057 0.40466
 O29 O 0.24767 0.30512 -0.56923
 O30 O 0.21318 0.24607 -0.42254
 O31 O 0.25736 0.30185 -0.42799
 O32 O 0.20918 0.24355 -0.56295
 O33 O 0.25408 0.20552 -0.57362
 O34 O 0.30158 0.26304 -0.44077
 O35 O 0.25735 0.20692 -0.43184
 O36 O 0.29209 0.26653 -0.58090
 Cu37 Cu 0.22756 0.27816 -0.49480
 Cu38 Cu 0.28069 0.23172 -0.50783
 C39 C 0.27563 0.29614 -0.60026
 C40 C 0.22888 0.21631 -0.40257
 C41 C 0.28783 0.29216 -0.41163
 C42 C 0.22362 0.21417 -0.59061
 O43 O -0.29443 0.74568 -0.41360
 O44 O -0.25958 0.80363 -0.56247
 O45 O -0.29612 0.74130 -0.55560
 O46 O -0.25370 0.80508 -0.42199
 O47 O -0.20845 0.76720 -0.42271
 O48 O -0.24933 0.70591 -0.56060
 O49 O -0.21265 0.76841 -0.56375
 O50 O -0.24898 0.70819 -0.41815
 Cu51 Cu -0.28065 0.77744 -0.48790
 Cu52 Cu -0.22531 0.73368 -0.49176
 C53 C -0.27793 0.71700 -0.39076
 C54 C -0.22992 0.79648 -0.58758
 C55 C -0.27966 0.71285 -0.58126
 C56 C -0.22373 0.79694 -0.39989
 O57 O -0.03079 0.95535 0.10812
 O58 O 0.02138 0.96481 -0.13922
 O59 O -0.04506 0.95070 -0.02316
 O60 O 0.06898 0.95659 0.03527
 O61 O -0.03801 0.97374 -0.12836
 O62 O 0.03314 0.96235 0.12691
 O63 O 0.06993 0.98102 -0.09296
 O64 O -0.07842 0.98357 0.07017
 C65 C -0.06355 0.95805 0.11185
 C66 C 0.05261 0.95980 -0.13374
 C67 C -0.04821 0.94679 -0.08961
 C68 C 0.05834 0.94624 0.09637
 O69 O 0.02299 1.03844 0.13849
 O70 O -0.02771 1.05008 -0.10634
 O71 O -0.04706 1.05040 0.03557
 O72 O 0.06686 1.05089 -0.04232
 O73 O 0.03322 1.04073 -0.13519
 O74 O -0.03712 1.02970 0.13768
 O75 O 0.07072 1.02610 0.08414
 O76 O -0.07087 1.01907 -0.06547
 Co77 Co -0.00181 0.99674 0.11507
 Co78 Co -0.00209 1.00745 -0.11667
 Co79 Co -0.04413 1.00029 0.00980
 Co80 Co 0.06288 1.00363 -0.00384
 O81 O 0.00612 1.00331 -0.00281
 C82 C 0.05392 1.04473 0.12990
 C83 C -0.05955 1.04661 -0.10229
 C84 C -0.04926 1.05566 0.10080
 C85 C 0.05680 1.05939 -0.10449
 O86 O 0.47101 0.45188 0.10602
 O87 O 0.54204 0.49358 -0.15379
 O88 O 0.45595 0.44836 -0.05696
 O89 O 0.56345 0.45039 0.05229
 O90 O 0.48245 0.46888 -0.15131
 O91 O 0.52993 0.46365 0.14196
 O92 O 0.55868 0.45588 -0.07326
 O93 O 0.42871 0.47682 0.05100
 C94 C 0.44002 0.45136 0.09163
 C95 C 0.55503 0.46258 -0.13817
 C96 C 0.46531 0.44316 -0.12086
 C97 C 0.55398 0.44495 0.11554
 O98 O 0.52218 0.53657 0.14110
 O99 O 0.46235 0.54055 -0.11343
 O100 O 0.44828 0.54550 0.01080
 O101 O 0.56905 0.53400 -0.06145
 O102 O 0.52156 0.55934 -0.09930
 O103 O 0.45914 0.52812 0.11972
 O104 O 0.56874 0.52584 0.07378
 O105 O 0.41794 0.50623 -0.08290
 Co106 Co 0.49587 0.49539 0.11490
 Co107 Co 0.50216 0.51353 -0.11778
 Co108 Co 0.45442 0.49681 -0.02401
 Co109 Co 0.55980 0.49245 -0.00314
 O110 O 0.50518 0.49806 -0.00176
 C111 C 0.55319 0.54317 0.12550
 C112 C 0.43177 0.53082 -0.12779
 C113 C 0.44535 0.55115 0.07708
 C114 C 0.55293 0.56205 -0.08712
 C115 C 0.28817 0.31969 0.34482
 C116 C 0.31905 0.31265 0.30864
 C117 C 0.33419 0.34008 0.25734
 N118 N 0.36618 0.33377 0.23083
 N119 N 0.38138 0.35938 0.18831
 C120 C 0.36519 0.39231 0.17036
 N121 N 0.33287 0.39834 0.19567
 N122 N 0.31766 0.37271 0.23850
 C123 C 0.38332 0.42207 0.12868
 C124 C 0.41885 0.42065 0.12173
 H125 H 0.33373 0.28731 0.32123
 H126 H 0.36932 0.44667 0.10943
 H127 H 0.27364 0.34505 0.33155
 H128 H 0.43262 0.39695 0.14537
 C129 C -0.21631 0.82055 0.35948
 C130 C -0.18303 0.81650 0.33244
 C131 C -0.16711 0.84507 0.28456
 N132 N -0.13330 0.84220 0.26802
 N133 N -0.11792 0.86866 0.22770
 C134 C -0.13574 0.89904 0.20222
 N135 N -0.16970 0.90172 0.21800
 N136 N -0.18509 0.87526 0.25862
 C137 C -0.11840 0.92895 0.15953
 C138 C -0.08283 0.92933 0.15287
 H139 H -0.16722 0.79297 0.35036
 H140 H -0.13355 0.95125 0.13487
 H141 H -0.23180 0.84435 0.34155
 H142 H -0.06790 0.90753 0.17966
 C143 C 0.70448 0.68710 0.36480
 C144 C 0.66985 0.68917 0.34688
 C145 C 0.65359 0.66147 0.29701
 N146 N 0.61893 0.66048 0.29115
 N147 N 0.60371 0.63482 0.24805
 C148 C 0.62258 0.60928 0.20885
 N149 N 0.65729 0.61057 0.21398
 N150 N 0.67251 0.63612 0.25742
 C151 C 0.60590 0.58009 0.16275
 C152 C 0.57075 0.57323 0.16753
 H153 H 0.65376 0.71055 0.37281
 H154 H 0.62168 0.56265 0.12700
 H155 H 0.72029 0.66485 0.34090
 H156 H 0.55540 0.58971 0.20574
 C157 C 0.20644 1.19033 0.36056
 C158 C 0.17175 1.19400 0.34357
 C159 C 0.15446 1.16563 0.29658
 N160 N 0.11969 1.16387 0.29437
 N161 N 0.10395 1.13729 0.25411
 C162 C 0.12243 1.11159 0.21437
 N163 N 0.15715 1.11367 0.21589
 N164 N 0.17287 1.14008 0.25640
 C165 C 0.10565 1.08175 0.17020
 C166 C 0.07059 1.07428 0.17492
 H167 H 0.15654 1.21643 0.36863
 H168 H 0.12154 1.06465 0.13405
 H169 H 0.22067 1.16651 0.33757
 H170 H 0.05480 1.09062 0.21251
 C171 C 0.68531 0.29045 -0.35257
 C172 C 0.65290 0.30360 -0.37154
 C173 C 0.63325 0.32771 -0.32030
 N174 N 0.61024 0.35357 -0.34518
 N175 N 0.59441 0.37743 -0.29906
 C176 C 0.60092 0.37603 -0.22641
 N177 N 0.62337 0.34968 -0.20159
 N178 N 0.63936 0.32612 -0.24763
 C179 C 0.58495 0.40261 -0.17414
 C180 C 0.56789 0.43586 -0.19426
 H181 H 0.64384 0.29996 -0.42691
 H182 H 0.58860 0.39671 -0.11680
 H183 H 0.69594 0.29839 -0.30010
 H184 H 0.56477 0.44282 -0.25124
 C185 C 0.20254 0.80760 -0.35600
 C186 C 0.16691 0.80879 -0.35163
 C187 C 0.14985 0.83626 -0.30212
 N188 N 0.11560 0.84250 -0.30697
 N189 N 0.10053 0.86897 -0.26519
 C190 C 0.11917 0.89017 -0.21705
 N191 N 0.15331 0.88360 -0.21165
 N192 N 0.16835 0.85722 -0.25344
 C193 C 0.10329 0.92035 -0.17208
 C194 C 0.06874 0.92966 -0.17814
 H195 H 0.15154 0.79176 -0.38874
 H196 H 0.11932 0.93591 -0.13387
 H197 H 0.21750 0.82616 -0.32079
 H198 H 0.05266 0.91391 -0.21597
 C199 C 0.28629 0.67839 -0.36482
 C200 C 0.31815 0.68147 -0.33123
 C201 C 0.33257 0.64995 -0.28865
 N202 N 0.36662 0.64955 -0.27442
 N203 N 0.38054 0.62048 -0.23899
 C204 C 0.36099 0.59067 -0.21615
 N205 N 0.32675 0.59131 -0.22927
 N206 N 0.31283 0.62033 -0.26531
 C207 C 0.37679 0.55872 -0.17666
 C208 C 0.41222 0.55429 -0.17847
 H209 H 0.33437 0.70601 -0.34175
 H210 H 0.36095 0.54005 -0.14385
 H211 H 0.27100 0.65292 -0.35606
 H212 H 0.42731 0.57270 -0.21338
 C213 C -0.21667 1.17503 -0.34457
 C214 C -0.18761 1.18346 -0.30360
 C215 C -0.17079 1.15498 -0.25760
 N216 N -0.13931 1.16269 -0.23009
 N217 N -0.12250 1.13646 -0.19234
 C218 C -0.13655 1.10152 -0.18036
 N219 N -0.16839 1.09401 -0.20662
 N220 N -0.18517 1.12024 -0.24480
 C221 C -0.11689 1.07178 -0.14270
 C222 C -0.08153 1.07547 -0.13534
 H223 H -0.17515 1.21095 -0.30963
 H224 H -0.12977 1.04605 -0.12479
 H225 H -0.22887 1.14734 -0.33972
 H226 H -0.06874 1.10035 -0.15743
 C227 C 0.70744 0.69320 -0.33264
 C228 C 0.67503 0.70051 -0.30323
 C229 C 0.65829 0.67478 -0.25099
 N230 N 0.62494 0.68045 -0.23250
 N231 N 0.60873 0.65622 -0.18854
 C232 C 0.62536 0.62552 -0.16107
 N233 N 0.65888 0.62018 -0.17865
 N234 N 0.67506 0.64434 -0.22284
 C235 C 0.60713 0.59665 -0.11779
 C236 C 0.57146 0.59633 -0.11116
 H237 H 0.66052 0.72485 -0.32203
 H238 H 0.62182 0.57272 -0.09772
 H239 H 0.72191 0.66864 -0.31474
 H240 H 0.55660 0.61977 -0.13264
 C241 C 0.21344 1.19213 -0.34588
 C242 C 0.17923 1.19721 -0.32518
 C243 C 0.16125 1.17226 -0.27359
 N244 N 0.12649 1.17321 -0.27012
 N245 N 0.10942 1.15044 -0.22487
 C246 C 0.12652 1.12612 -0.18079
 N247 N 0.16135 1.12553 -0.18347
 N248 N 0.17844 1.14810 -0.22926
 C249 C 0.10787 1.09989 -0.13253
 C250 C 0.07356 1.09043 -0.14450
 H251 H 0.16415 1.21916 -0.35118
 H252 H 0.12222 1.08503 -0.09103
 H253 H 0.22830 1.16894 -0.32348
 H254 H 0.06004 1.10275 -0.19007
 C255 C 0.30741 0.31480 -0.35804
 C256 C 0.34291 0.31069 -0.35158
 C257 C 0.36327 0.33190 -0.29735
 N258 N 0.39783 0.33468 -0.30542
 N259 N 0.41666 0.35389 -0.25687
 C260 C 0.40160 0.37054 -0.19785
 N261 N 0.36710 0.36730 -0.18929
 N262 N 0.34825 0.34842 -0.23819
 C263 C 0.42142 0.39353 -0.14539
 C264 C 0.45309 0.40988 -0.16268
 H265 H 0.35654 0.29204 -0.38911
 H266 H 0.40835 0.40248 -0.09589
 H267 H 0.29391 0.33546 -0.32440
 H268 H 0.46521 0.40338 -0.21452
 C269 C -0.20605 0.82323 -0.34971
 C270 C -0.17614 0.81275 -0.31353
 C271 C -0.15428 0.84100 -0.27632
 N272 N -0.12955 0.82946 -0.22945
 N273 N -0.10833 0.85477 -0.19876
 C274 C -0.11082 0.89246 -0.21478
 N275 N -0.13542 0.90392 -0.26184
 N276 N -0.15684 0.87871 -0.29186
 C277 C -0.08702 0.92086 -0.18425
 C278 C -0.06821 0.91510 -0.12084
 H279 H -0.16781 0.78325 -0.31482
 H280 H -0.08614 0.94856 -0.21015
 H281 H -0.21589 0.85200 -0.34372
 H282 H -0.07126 0.88900 -0.09021
 C283 C 0.31814 0.70073 0.35720
 C284 C 0.31027 0.67111 0.30918
 C285 C 0.33849 0.64993 0.27382
 N286 N 0.33448 0.63339 0.20722
 N287 N 0.36045 0.61465 0.17571
 C288 C 0.39120 0.61155 0.21001
 N289 N 0.39496 0.62761 0.27689
 N290 N 0.36922 0.64669 0.30790
 C291 C 0.41939 0.58892 0.17874
 C292 C 0.42206 0.58094 0.10455
 H293 H 0.28386 0.66376 0.29740
 H294 H 0.43825 0.57740 0.21579
 H295 H 0.34472 0.70955 0.36226
 H296 H 0.40492 0.59468 0.06656
 C297 C -0.18088 1.20290 0.37857
 C298 C -0.18584 1.17174 0.33211
 C299 C -0.15632 1.15256 0.29763
 N300 N -0.15977 1.13461 0.23227
 N301 N -0.13324 1.11641 0.20195
 C302 C -0.10244 1.11507 0.23635
 N303 N -0.09912 1.13262 0.30211
 N304 N -0.12549 1.15131 0.33188
 C305 C -0.07389 1.09263 0.20577
 C306 C -0.07079 1.08627 0.13115
 H307 H -0.21147 1.16138 0.32056
 H308 H -0.05583 1.07965 0.24279
 H309 H -0.15531 1.21498 0.38289
 H310 H -0.08710 1.10181 0.09404
 C311 C 0.71062 0.31319 0.35764
 C312 C 0.67701 0.30720 0.33415
 C313 C 0.65891 0.33342 0.28568
 N314 N 0.62416 0.33220 0.28247
 N315 N 0.60706 0.35565 0.23896
 C316 C 0.62417 0.38090 0.19639
 N317 N 0.65898 0.38184 0.19892
 N318 N 0.67608 0.35864 0.24306
 C319 C 0.60558 0.40696 0.14829
 C320 C 0.57123 0.41626 0.16017
 H321 H 0.66245 0.28344 0.35582
 H322 H 0.61985 0.42115 0.10551
 H323 H 0.72456 0.33853 0.34137
 H324 H 0.55778 0.40497 0.20709
 C325 C 0.21555 0.81915 0.34512
 C326 C 0.18243 0.81253 0.31885
 C327 C 0.16456 0.83786 0.26820
 N328 N 0.13022 0.83378 0.25908
 N329 N 0.11314 0.85640 0.21400
 C330 C 0.12987 0.88374 0.17568
 N331 N 0.16433 0.88756 0.18406
 N332 N 0.18141 0.86510 0.22971
 C333 C 0.11104 0.90966 0.12752
 C334 C 0.07575 0.91524 0.13470
 H335 H 0.16795 0.78838 0.33917
 H336 H 0.12565 0.92737 0.09044
 H337 H 0.22971 0.84431 0.32870
 H338 H 0.06161 0.90014 0.17650
   
