data_POSCAR
  _audit_creation_date              2014-09-24
  _audit_creation_method            'ToBaCCo'
  _symmetry_space_group_name_H-M    'P1'
  _symmetry_Int_Tables_number       1
  _symmetry_cell_setting            triclinic
  loop_
  _symmetry_equiv_pos_as_xyz
 x,y,z
_cell_length_a 29.3308
_cell_length_b 29.6982
_cell_length_c 29.0783
_cell_angle_alpha 98.033700
_cell_angle_beta 86.638600
_cell_angle_gamma 83.116900
loop_
  _atom_site_label
  _atom_site_type_symbol
  _atom_site_fract_x
  _atom_site_fract_y
  _atom_site_fract_z
O1 O 0.53952 0.51573 0.04565
 O2 O 0.41237 0.52736 0.05576
 O3 O 0.47921 0.45722 0.05005
 O4 O 0.47189 0.58276 0.05583
 O5 O 0.47134 0.57510 -0.02084
 O6 O 0.48210 0.44969 -0.02670
 O7 O 0.41341 0.51512 -0.02086
 O8 O 0.53848 0.50845 -0.03089
 Cu9 Cu 0.47585 0.52091 0.05964
 Cu10 Cu 0.47604 0.51131 -0.03241
 C11 C 0.56055 0.51015 0.00532
 C12 C 0.39117 0.52435 0.01877
 C13 C 0.48332 0.43199 0.01058
 C14 C 0.46940 0.60029 0.01855
 O15 O -0.00972 0.53869 0.49303
 O16 O -0.02847 0.41778 0.47282
 O17 O -0.01454 0.47452 0.54640
 O18 O -0.02538 0.48281 0.42210
 O19 O 0.05048 0.46918 0.41032
 O20 O 0.05940 0.44916 0.53087
 O21 O 0.04598 0.39806 0.45454
 O22 O 0.06548 0.51856 0.48712
 Cu23 Cu -0.02715 0.48032 0.48535
 Cu24 Cu 0.06287 0.45639 0.46906
 C25 C 0.03091 0.54956 0.49361
 C26 C 0.00557 0.38716 0.45961
 C27 C 0.02419 0.45941 0.55957
 C28 C 0.01122 0.47968 0.39573
 O29 O 0.52233 0.02020 0.58417
 O30 O 0.50656 0.04656 0.46428
 O31 O 0.45187 0.04137 0.53814
 O32 O 0.57836 0.02295 0.51105
 O33 O 0.57299 -0.04852 0.48101
 O34 O 0.44886 -0.03240 0.51646
 O35 O 0.49791 -0.02587 0.44185
 O36 O 0.52466 -0.05323 0.55718
 Cu37 Cu 0.51527 0.04019 0.52664
 Cu38 Cu 0.51086 -0.04727 0.49680
 C39 C 0.52724 -0.02149 0.59079
 C40 C 0.49792 0.01481 0.43313
 C41 C 0.42891 0.00751 0.53257
 C42 C 0.59709 -0.01617 0.49075
 C43 C 0.49368 -0.08526 -0.07326
 C44 C 0.51317 -0.04775 -0.08670
 C45 C 0.51682 -0.00984 -0.05279
 C46 C 0.50068 -0.00906 -0.00571
 C47 C 0.48183 -0.04786 0.00633
 C48 C 0.47975 -0.08667 -0.02671
 C49 C 0.50358 0.03148 0.03105
 C50 C 0.50279 0.02674 0.07865
 C51 C 0.49996 0.06492 0.11359
 C52 C 0.50375 0.10828 0.10094
 C53 C 0.50710 0.11392 0.05355
 C54 C 0.50500 0.07568 0.01930
 H55 H 0.48948 -0.11386 -0.09947
 H56 H 0.53344 0.01812 -0.06322
 H57 H 0.46915 -0.04856 0.04169
 H58 H 0.50336 -0.00658 0.08961
 H59 H 0.50312 0.13745 0.12795
 H60 H 0.50313 0.08093 -0.01660
 C61 C -0.10294 0.51868 1.07396
 C62 C -0.11499 0.51901 1.02779
 C63 C -0.08158 0.52571 0.99344
 C64 C -0.03563 0.52749 1.00358
 C65 C -0.02385 0.52286 1.04886
 C66 C -0.05738 0.52195 1.08486
 C67 C 0.00050 0.53404 0.96771
 C68 C 0.03908 0.55501 0.98165
 C69 C 0.07715 0.55566 0.95029
 C70 C 0.07389 0.53939 0.90305
 C71 C 0.03553 0.51909 0.88824
 C72 C -0.00107 0.51639 0.92045
 H73 H -0.12868 0.51556 1.10114
 H74 H -0.09158 0.52967 0.95885
 H75 H 0.01188 0.52010 1.05667
 H76 H 0.04042 0.56862 1.01781
 H77 H 0.10189 0.54077 0.87753
 H78 H -0.02922 0.49827 0.90891
 C79 C -0.05563 -0.11259 0.50202
 C80 C -0.00785 -0.12506 0.50254
 C81 C 0.02118 -0.09078 0.49920
 C82 C 0.00298 -0.04482 0.49734
 C83 C -0.04528 -0.03425 0.49591
 C84 C -0.07410 -0.06849 0.49588
 C85 C 0.03403 -0.00813 0.49610
 C86 C 0.01992 0.03150 0.47620
 C87 C 0.04487 0.06918 0.48033
 C88 C 0.08667 0.06551 0.50139
 C89 C 0.10348 0.02536 0.51831
 C90 C 0.07688 -0.01113 0.51634
 H91 H -0.07952 -0.13717 0.50526
 H92 H 0.05805 -0.10004 0.49656
 H93 H -0.06092 0.00015 0.49367
 H94 H -0.01082 0.03349 0.45748
 H95 H 0.10628 0.09427 0.50550
 H96 H 0.08909 -0.04074 0.53216
 C97 C -0.31463 0.51737 1.02649
 C98 C -0.29387 0.49328 0.98523
 C99 C -0.31836 0.47392 0.94986
 C100 C -0.36639 0.47981 0.95718
 C101 C -0.38883 0.50429 0.99951
 C102 C -0.36249 0.52304 1.03488
 O103 O -0.28478 0.53394 1.05486
 C104 C -0.24441 0.51983 1.03093
 C105 C -0.24821 0.49468 0.98823
 C106 C -0.21052 0.47645 0.95739
 C107 C -0.16692 0.48453 0.97104
 C108 C -0.16177 0.51103 1.01464
 C109 C -0.20134 0.52877 1.04508
 H110 H -0.30114 0.45532 0.91763
 H111 H -0.38611 0.46504 0.92991
 H112 H -0.37874 0.54219 1.06731
 H113 H -0.21451 0.45647 0.92410
 H114 H -0.13714 0.46963 0.94775
 H115 H -0.19885 0.54942 1.07836
 C116 C 0.27253 0.53496 0.98227
 C117 C 0.24933 0.56154 1.02102
 C118 C 0.27057 0.57344 1.06173
 C119 C 0.31788 0.55837 1.06188
 C120 C 0.34312 0.53347 1.02103
 C121 C 0.31955 0.52121 0.98096
 O122 O 0.24577 0.52469 0.94826
 C123 C 0.20477 0.54574 0.96560
 C124 C 0.20508 0.56954 1.00960
 C125 C 0.16571 0.59464 1.03358
 C126 C 0.12412 0.59356 1.01202
 C127 C 0.12217 0.56593 0.96809
 C128 C 0.16388 0.54286 0.94430
 H129 H 0.25144 0.59352 1.09224
 H130 H 0.33511 0.56815 1.09299
 H131 H 0.33720 0.50147 0.94943
 H132 H 0.16686 0.61408 1.06778
 H133 H 0.09350 0.61337 1.03042
 H134 H 0.16479 0.52054 0.91146
 C135 C 0.00841 -0.32491 0.49642
 C136 C 0.04955 -0.31159 0.50981
 C137 C 0.08629 -0.34297 0.51806
 C138 C 0.08025 -0.38975 0.51208
 C139 C 0.03726 -0.40396 0.50005
 C140 C 0.00084 -0.37053 0.49265
 O141 O -0.02128 -0.29064 0.48747
 C142 C 0.00120 -0.25466 0.49607
 C143 C 0.04435 -0.26518 0.51061
 C144 C 0.07257 -0.23171 0.52313
 C145 C 0.05529 -0.18572 0.52098
 C146 C 0.01105 -0.17401 0.50478
 C147 C -0.01554 -0.20996 0.49133
 H148 H 0.11872 -0.33199 0.52781
 H149 H 0.10875 -0.41464 0.51767
 H150 H -0.03207 -0.37981 0.48225
 H151 H 0.10622 -0.24051 0.53526
 H152 H 0.07637 -0.15958 0.53276
 H153 H -0.04847 -0.20429 0.47692
 C154 C 0.02841 0.25795 0.44209
 C155 C -0.01537 0.24723 0.45044
 C156 C -0.05389 0.28024 0.45869
 C157 C -0.04689 0.32623 0.45930
 C158 C -0.00185 0.33836 0.45223
 C159 C 0.03615 0.30340 0.44242
 O160 O 0.06067 0.22209 0.43902
 C161 C 0.03682 0.18811 0.44605
 C162 C -0.00984 0.20163 0.45324
 C163 C -0.04066 0.17268 0.46602
 C164 C -0.02255 0.12835 0.47273
 C165 C 0.02568 0.11361 0.46630
 C166 C 0.05543 0.14387 0.45129
 H167 H -0.08792 0.27108 0.46599
 H168 H -0.07641 0.35242 0.46704
 H169 H 0.07104 0.31140 0.43782
 H170 H -0.07712 0.18450 0.47279
 H171 H -0.04603 0.10659 0.48538
 H172 H 0.09232 0.13424 0.44592
 C173 C 0.53244 -0.01465 -0.28065
 C174 C 0.55058 -0.05903 -0.27821
 C175 C 0.56141 -0.09212 -0.31726
 C176 C 0.55314 -0.07909 -0.36079
 C177 C 0.53567 -0.03313 -0.36496
 C178 C 0.52592 -0.00024 -0.32396
 O179 O 0.51989 0.00982 -0.23890
 C180 C 0.53064 -0.01981 -0.20961
 C181 C 0.55020 -0.06215 -0.23212
 C182 C 0.56261 -0.09897 -0.20889
 C183 C 0.55317 -0.09248 -0.16052
 C184 C 0.53039 -0.05010 -0.13631
 C185 C 0.52032 -0.01269 -0.16119
 H186 H 0.57445 -0.12716 -0.31423
 H187 H 0.56093 -0.10496 -0.39132
 H188 H 0.51135 0.03475 -0.32547
 H189 H 0.57804 -0.13191 -0.22747
 H190 H 0.56214 -0.12116 -0.14208
 H191 H 0.50242 0.01984 -0.14397
 C192 C 0.50090 0.05347 0.31409
 C193 C 0.46461 0.03322 0.29633
 C194 C 0.43752 0.00862 0.32166
 C195 C 0.44853 0.00409 0.36712
 C196 C 0.48572 0.02441 0.38661
 C197 C 0.51194 0.05018 0.35998
 O198 O 0.52395 0.07255 0.28266
 C199 C 0.50165 0.06403 0.24437
 C200 C 0.46502 0.04018 0.25124
 C201 C 0.43812 0.02544 0.21585
 C202 C 0.44964 0.03513 0.17123
 C203 C 0.48766 0.05898 0.16249
 C204 C 0.51364 0.07443 0.19990
 H205 H 0.40963 -0.00757 0.30654
 H206 H 0.42840 -0.01579 0.38709
 H207 H 0.54117 0.06509 0.37370
 H208 H 0.40973 0.00638 0.22217
 H209 H 0.42924 0.02346 0.14312
 H210 H 0.54316 0.09216 0.19413
 C211 C 0.47652 -0.28057 -0.00941
 C212 C 0.44692 -0.25497 0.02571
 C213 C 0.42470 -0.27454 0.06003
 C214 C 0.43318 -0.32239 0.05784
 C215 C 0.46264 -0.34949 0.02124
 C216 C 0.48448 -0.32822 -0.01294
 O217 O 0.49573 -0.25525 -0.03727
 C218 C 0.47764 -0.21282 -0.01960
 C219 C 0.44721 -0.21070 0.01863
 C220 C 0.42429 -0.16949 0.04224
 C221 C 0.43364 -0.12880 0.02615
 C222 C 0.46626 -0.12987 -0.01233
 C223 C 0.48816 -0.17294 -0.03553
 H224 H 0.40197 -0.25373 0.08766
 H225 H 0.41615 -0.33846 0.08408
 H226 H 0.50749 -0.34811 -0.04094
 H227 H 0.40008 -0.16867 0.07200
 H228 H 0.41548 -0.09664 0.04388
 H229 H 0.51401 -0.17561 -0.06423
 C230 C 0.48714 0.31095 0.03890
 C231 C 0.51338 0.28724 0.00038
 C232 C 0.52937 0.30832 -0.03600
 C233 C 0.51814 0.35594 -0.03249
 C234 C 0.49201 0.38158 0.00730
 C235 C 0.47633 0.35866 0.04362
 O236 O 0.47441 0.28386 0.06876
 C237 C 0.49331 0.24227 0.04867
 C238 C 0.51782 0.24269 0.00701
 C239 C 0.54095 0.20331 -0.01968
 C240 C 0.53823 0.16154 -0.00317
 C241 C 0.51178 0.15947 0.03893
 C242 C 0.48944 0.20086 0.06548
 H243 H 0.54970 0.28880 -0.06609
 H244 H 0.53069 0.37298 -0.06036
 H245 H 0.45617 0.37731 0.07427
 H246 H 0.56055 0.20468 -0.05206
 H247 H 0.55683 0.13077 -0.02340
 H248 H 0.46869 0.20089 0.09750
 C249 C -0.27385 -0.01709 0.49523
 C250 C -0.25874 -0.04927 0.45697
 C251 C -0.28845 -0.07021 0.42790
 C252 C -0.33586 -0.05796 0.43892
 C253 C -0.35272 -0.02501 0.47822
 C254 C -0.32115 -0.00369 0.50641
 O255 O -0.23964 -0.00389 0.51990
 C256 C -0.20222 -0.02837 0.49666
 C257 C -0.21229 -0.05651 0.45784
 C258 C -0.17912 -0.08705 0.42969
 C259 C -0.13369 -0.08923 0.44229
 C260 C -0.12210 -0.06122 0.48244
 C261 C -0.15677 -0.02967 0.50971
 H262 H -0.27561 -0.09597 0.39843
 H263 H -0.35952 -0.07459 0.41713
 H264 H -0.33304 0.02076 0.53722
 H265 H -0.18807 -0.10919 0.39966
 H266 H -0.10742 -0.11343 0.42123
 H267 H -0.14893 -0.00851 0.54093
 C268 C 0.30193 -0.00501 0.53205
 C269 C 0.28369 0.03144 0.56508
 C270 C 0.31083 0.06082 0.58891
 C271 C 0.35871 0.05235 0.57825
 C272 C 0.37854 0.01479 0.54457
 C273 C 0.34958 -0.01457 0.52153
 O274 O 0.26995 -0.02634 0.51066
 C275 C 0.23065 -0.00286 0.53064
 C276 C 0.23722 0.03266 0.56439
 C277 C 0.20103 0.06362 0.58751
 C278 C 0.15642 0.05867 0.57435
 C279 C 0.14876 0.02330 0.53858
 C280 C 0.18635 -0.00869 0.51730
 H281 H 0.29562 0.08986 0.61407
 H282 H 0.38032 0.07515 0.59608
 H283 H 0.36357 -0.04286 0.49488
 H284 H 0.20710 0.09171 0.61344
 H285 H 0.12798 0.08363 0.59043
 H286 H 0.18164 -0.03502 0.48886
 C287 C -0.02738 0.49147 1.27632
 C288 C 0.00200 0.52095 1.26316
 C289 C 0.03589 0.53626 1.29053
 C290 C 0.03940 0.52090 1.33367
 C291 C 0.00863 0.49169 1.34875
 C292 C -0.02536 0.47677 1.31980
 O293 O -0.05555 0.47952 1.24387
 C294 C -0.04379 0.50226 1.20969
 C295 C -0.00916 0.52849 1.22023
 C296 C 0.00846 0.55540 1.19006
 C297 C -0.00950 0.55444 1.14658
 C298 C -0.04354 0.52576 1.13339
 C299 C -0.06171 0.50006 1.16604
 H300 H 0.05892 0.55901 1.27899
 H301 H 0.06522 0.53273 1.35593
 H302 H -0.04903 0.45426 1.33064
 H303 H 0.03525 0.57626 1.19957
 H304 H 0.00374 0.57564 1.12284
 H305 H -0.08752 0.47780 1.15723
 C306 C 0.00826 0.47756 0.69073
 C307 C 0.04518 0.44826 0.70062
 C308 C 0.07487 0.42047 0.66637
 C309 C 0.06662 0.42346 0.61989
 C310 C 0.02917 0.45384 0.60862
 C311 C -0.00099 0.48062 0.64465
 O312 O -0.01332 0.50364 0.72839
 C313 C 0.01065 0.49063 0.76269
 C314 C 0.04675 0.45675 0.74743
 C315 C 0.07864 0.44053 0.77667
 C316 C 0.07352 0.46050 0.82352
 C317 C 0.03697 0.49583 0.83999
 C318 C 0.00452 0.51055 0.80942
 H319 H 0.10414 0.39830 0.67508
 H320 H 0.08996 0.40273 0.59268
 H321 H -0.02918 0.50484 0.63708
 H322 H 0.10723 0.41447 0.76361
 H323 H 0.09854 0.44929 0.84687
 H324 H -0.02298 0.53822 0.82115
   
