data_POSCAR
  _audit_creation_date              2014-09-24
  _audit_creation_method            'ToBaCCo'
  _symmetry_space_group_name_H-M    'P1'
  _symmetry_Int_Tables_number       1
  _symmetry_cell_setting            triclinic
  loop_
  _symmetry_equiv_pos_as_xyz
 x,y,z
_cell_length_a 56.4532
_cell_length_b 56.4388
_cell_length_c 56.4477
_cell_angle_alpha 89.505800
_cell_angle_beta 89.998900
_cell_angle_gamma 89.753900
loop_
  _atom_site_label
  _atom_site_type_symbol
  _atom_site_fract_x
  _atom_site_fract_y
  _atom_site_fract_z
N1 N 0.23241 0.23094 0.23035
 N2 N 0.73251 0.73325 0.73174
 N3 N 0.30997 0.81974 0.68050
 N4 N 0.80848 0.32039 0.18188
 N5 N 0.81130 0.68141 0.31203
 N6 N 0.31000 0.18383 -0.18948
 N7 N 0.67748 0.30857 -0.18685
 N8 N 0.22739 0.76121 0.26759
 N9 N 0.47830 0.47857 0.48036
 N10 N -0.02208 -0.02295 0.97874
 N11 N 1.01345 0.51025 0.98144
 N12 N 0.56100 0.05847 0.43092
 N13 N -0.02018 0.02395 0.51097
 N14 N 0.42871 0.57004 0.05731
 N15 N 0.56050 -0.06466 0.06608
 N16 N 1.05943 0.43432 0.56724
 C17 C 0.40483 0.00569 0.21908
 H18 H 0.40540 0.02173 0.22943
 C19 C 0.42135 0.00208 0.20104
 H20 H 0.43464 0.01541 0.19737
 C21 C 0.38743 -0.03173 0.21179
 H22 H 0.37460 -0.04513 0.21639
 C23 C 0.40363 -0.03604 0.19361
 H24 H 0.40304 -0.05264 0.18413
 N25 N 0.38826 -0.01108 0.22406
 C26 C 0.33199 0.02636 0.26166
 H27 H 0.33058 0.01534 0.27737
 C28 C 0.31763 0.04644 0.25914
 H29 H 0.30514 0.05097 0.27296
 C30 C 0.35024 0.03416 0.22456
 H31 H 0.36286 0.02927 0.21108
 C32 C 0.33621 0.05438 0.22133
 H33 H 0.33824 0.06513 0.20548
 Zn34 Zn 0.36803 -0.00574 0.25026
 N35 N 0.34823 0.02090 0.24472
 C36 C 0.38690 0.02046 0.28868
 N37 N 0.38796 -0.00033 0.27664
 C38 C 0.40465 -0.01705 0.28188
 C39 C 0.42111 -0.01320 0.29990
 C40 C 0.40302 0.02500 0.30683
 C41 C 0.33231 -0.03769 0.23849
 C42 C 0.31789 -0.05761 0.24091
 C43 C 0.33614 -0.06573 0.27887
 C44 C 0.35023 -0.04565 0.27575
 N45 N 0.34839 -0.03236 0.25558
 H46 H 0.37400 0.03382 0.28387
 H47 H 0.40542 -0.03319 0.27170
 H48 H 0.43455 -0.02645 0.30373
 H49 H 0.40230 0.04173 0.31607
 H50 H 0.33102 -0.02665 0.22278
 H51 H 0.30548 -0.06199 0.22700
 H52 H 0.33799 -0.07647 0.29476
 H53 H 0.36275 -0.04086 0.28934
 C54 C 0.31996 0.06070 0.23890
 C55 C 0.42079 -0.01903 0.18827
 C56 C 0.31999 -0.07187 0.26119
 C57 C 0.42036 0.00808 0.31238
 C58 C 0.08220 -0.00790 0.71306
 H59 H 0.08092 -0.02396 0.72356
 C60 C 0.06795 -0.00486 0.69303
 H61 H 0.05567 -0.01864 0.68802
 C62 C 0.09999 0.02960 0.70651
 H63 H 0.11239 0.04303 0.71188
 C64 C 0.08606 0.03334 0.68635
 H65 H 0.08794 0.04956 0.67612
 N66 N 0.09816 0.00901 0.71912
 C67 C 0.15470 -0.02887 0.75615
 H68 H 0.15522 -0.01916 0.77258
 C69 C 0.17128 -0.04680 0.75194
 H70 H 0.18455 -0.05102 0.76520
 C71 C 0.13739 -0.03467 0.71836
 H72 H 0.12458 -0.02953 0.70506
 C73 C 0.15364 -0.05270 0.71345
 H74 H 0.15310 -0.06153 0.69649
 Zn75 Zn 0.11777 0.00275 0.74567
 N76 N 0.13815 -0.02322 0.73948
 C77 C 0.10001 -0.02442 0.78447
 N78 N 0.09796 -0.00377 0.77197
 C79 C 0.08159 0.01292 0.77792
 C80 C 0.06713 0.00961 0.79773
 C81 C 0.08587 -0.02845 0.80441
 C82 C 0.15419 0.03478 0.73566
 C83 C 0.17043 0.05280 0.74011
 C84 C 0.15224 0.05849 0.77841
 C85 C 0.13633 0.04036 0.77326
 N86 N 0.13753 0.02896 0.75213
 H87 H 0.11273 -0.03770 0.77919
 H88 H 0.08015 0.02904 0.76749
 H89 H 0.05452 0.02323 0.80266
 H90 H 0.08792 -0.04471 0.81456
 H91 H 0.15507 0.02510 0.71922
 H92 H 0.18381 0.05712 0.72703
 H93 H 0.15138 0.06726 0.79539
 H94 H 0.12345 0.03509 0.78639
 C95 C 0.17078 -0.05874 0.73035
 C96 C 0.07009 0.01584 0.67943
 C97 C 0.16950 0.06467 0.76173
 C98 C 0.06947 -0.01116 0.81123
 C99 C 0.57916 0.49463 0.21446
 H100 H 0.57844 0.47796 0.22404
 C101 C 0.56288 0.49943 0.19640
 H102 H 0.54960 0.48640 0.19195
 C103 C 0.59693 0.53229 0.20894
 H104 H 0.60990 0.54524 0.21418
 C105 C 0.58097 0.53780 0.19077
 H106 H 0.58185 0.55489 0.18194
 N107 N 0.59583 0.51093 0.22028
 C108 C 0.65276 0.47137 0.25503
 H109 H 0.65385 0.48103 0.27147
 C110 C 0.66895 0.45323 0.25037
 H111 H 0.68250 0.44881 0.26328
 C112 C 0.63436 0.46592 0.21770
 H113 H 0.62122 0.47128 0.20480
 C114 C 0.65024 0.44767 0.21232
 H115 H 0.64915 0.43888 0.19537
 Zn116 Zn 0.61634 0.50365 0.24588
 N117 N 0.63588 0.47731 0.23881
 C118 C 0.59903 0.47649 0.28500
 N119 N 0.59723 0.49730 0.27274
 C120 C 0.58147 0.51437 0.27924
 C121 C 0.56735 0.51122 0.29931
 C122 C 0.58522 0.47262 0.30521
 C123 C 0.65299 0.53518 0.23505
 C124 C 0.66976 0.55279 0.23924
 C125 C 0.65325 0.55791 0.27837
 C126 C 0.63680 0.54021 0.27347
 N127 N 0.63692 0.52929 0.25206
 H128 H 0.61126 0.46294 0.27929
 H129 H 0.58020 0.53061 0.26898
 H130 H 0.55518 0.52509 0.30462
 H131 H 0.58702 0.45620 0.31513
 H132 H 0.65300 0.52589 0.21837
 H133 H 0.68267 0.55718 0.22572
 H134 H 0.65324 0.56630 0.29556
 H135 H 0.62436 0.53487 0.28700
 C136 C 0.66775 0.44136 0.22877
 C137 C 0.56378 0.52123 0.18448
 C138 C 0.66994 0.56417 0.26115
 C139 C 0.56940 0.49025 0.31253
 C140 C 0.90486 0.50471 0.72070
 H141 H 0.90619 0.52058 0.73123
 C142 C 0.92135 0.50040 0.70280
 H143 H 0.93540 0.51302 0.69945
 C144 C 0.88542 0.46846 0.71271
 H145 H 0.87172 0.45583 0.71695
 C146 C 0.90158 0.46346 0.69465
 H147 H 0.90014 0.44708 0.68490
 N148 N 0.88729 0.48888 0.72524
 C149 C 0.83252 0.52917 0.76192
 H150 H 0.83027 0.51811 0.77750
 C151 C 0.81897 0.54976 0.75917
 H152 H 0.80628 0.55465 0.77269
 C153 C 0.85190 0.53644 0.72530
 H154 H 0.86461 0.53110 0.71207
 C155 C 0.83870 0.55719 0.72185
 H156 H 0.84144 0.56789 0.70608
 Zn157 Zn 0.86700 0.49539 0.75108
 N158 N 0.84889 0.52315 0.74532
 C159 C 0.88582 0.51966 0.79090
 N160 N 0.88655 0.49940 0.77799
 C161 C 0.90171 0.48142 0.78368
 C162 C 0.91633 0.48305 0.80355
 C163 C 0.90015 0.52203 0.81090
 C164 C 0.82930 0.46528 0.73929
 C165 C 0.81250 0.44750 0.74293
 C166 C 0.82912 0.44034 0.78180
 C167 C 0.84559 0.45823 0.77746
 N168 N 0.84552 0.47018 0.75640
 H169 H 0.87413 0.53400 0.78579
 H170 H 0.90218 0.46566 0.77291
 H171 H 0.92806 0.46850 0.80818
 H172 H 0.89925 0.53806 0.82128
 H173 H 0.82935 0.47535 0.72290
 H174 H 0.79959 0.44376 0.72928
 H175 H 0.82922 0.43102 0.79866
 H176 H 0.85812 0.46276 0.79111
 C177 C 0.82224 0.56399 0.73905
 C178 C 0.91974 0.47955 0.68972
 C179 C 0.81242 0.43494 0.76441
 C180 C 0.91540 0.50348 0.81737
 C181 C 0.21668 0.40802 0.00776
 H182 H 0.22793 0.41018 0.02311
 C183 C 0.19614 0.42167 0.00533
 H184 H 0.19147 0.43435 0.01887
 C185 C 0.20895 0.38878 -0.02862
 H186 H 0.21409 0.37609 -0.04188
 C187 C 0.18822 0.40209 -0.03173
 H188 H 0.17734 0.39946 -0.04729
 N189 N 0.22247 0.39168 -0.00888
 C190 C 0.26448 0.33894 0.02944
 H191 H 0.28032 0.33858 0.01866
 C192 C 0.26283 0.32439 0.04951
 H193 H 0.27746 0.31282 0.05430
 C194 C 0.22605 0.35450 0.03650
 H195 H 0.21164 0.36604 0.03127
 C196 C 0.22367 0.34023 0.05669
 H197 H 0.20755 0.34105 0.06707
 Zn198 Zn 0.25030 0.37363 -0.00347
 N199 N 0.24641 0.35392 0.02359
 C200 C 0.28737 0.39533 0.02238
 N201 N 0.27531 0.39532 0.00149
 C202 C 0.27976 0.41178 -0.01569
 C203 C 0.29710 0.42902 -0.01227
 C204 C 0.30483 0.41224 0.02651
 C205 C 0.24114 0.33601 -0.03390
 C206 C 0.24549 0.31984 -0.05198
 C207 C 0.28227 0.33999 -0.06041
 C208 C 0.27723 0.35581 -0.04215
 N209 N 0.25687 0.35361 -0.02941
 H210 H 0.28317 0.38259 0.03610
 H211 H 0.26960 0.41165 -0.03194
 H212 H 0.30040 0.44219 -0.02594
 H213 H 0.31416 0.41227 0.04328
 H214 H 0.22531 0.33442 -0.02320
 H215 H 0.23295 0.30578 -0.05532
 H216 H 0.29860 0.34170 -0.07035
 H217 H 0.28979 0.36953 -0.03796
 C218 C 0.24230 0.32520 0.06335
 C219 C 0.18170 0.41855 -0.01450
 C220 C 0.26628 0.32182 -0.06531
 C221 C 0.30968 0.42927 0.00908
 C222 C 0.71746 0.08653 -0.00503
 H223 H 0.72720 0.08566 -0.02151
 C224 C 0.69954 0.07018 -0.00029
 H225 H 0.69539 0.05668 -0.01316
 C226 C 0.71131 0.10480 0.03217
 H227 H 0.71624 0.11803 0.04495
 C228 C 0.69328 0.08877 0.03762
 H229 H 0.68423 0.08984 0.05451
 N230 N 0.72287 0.10349 0.01105
 C231 C 0.75673 0.16005 -0.02957
 H232 H 0.77324 0.16150 -0.01997
 C233 C 0.75170 0.17573 -0.04818
 H234 H 0.76441 0.18926 -0.05304
 C235 C 0.71958 0.14121 -0.03444
 H236 H 0.70688 0.12811 -0.02870
 C237 C 0.71385 0.15655 -0.05316
 H238 H 0.69685 0.15507 -0.06191
 Zn239 Zn 0.74821 0.12412 0.00363
 N240 N 0.74077 0.14317 -0.02313
 C241 C 0.78727 0.10641 -0.02306
 N242 N 0.77519 0.10502 -0.00222
 C243 C 0.78174 0.08945 0.01514
 C244 C 0.80161 0.07497 0.01220
 C245 C 0.80727 0.09222 -0.02672
 C246 C 0.73700 0.16104 0.03454
 C247 C 0.74096 0.17790 0.05206
 C248 C 0.78027 0.16170 0.05771
 C249 C 0.77559 0.14514 0.04009
 N250 N 0.75419 0.14504 0.02897
 H251 H 0.78149 0.11850 -0.03684
 H252 H 0.77161 0.08850 0.03139
 H253 H 0.80690 0.06286 0.02624
 H254 H 0.81699 0.09360 -0.04322
 H255 H 0.72032 0.16086 0.02510
 H256 H 0.72727 0.19072 0.05622
 H257 H 0.79743 0.16183 0.06629
 H258 H 0.78926 0.13274 0.03502
 C259 C 0.73003 0.17402 -0.06001
 C260 C 0.68737 0.07131 0.02125
 C261 C 0.76283 0.17828 0.06367
 C262 C 0.81457 0.07648 -0.00886
 C263 C 0.21588 0.58534 0.49541
 H264 H 0.22612 0.58383 0.47929
 C265 C 0.19782 0.56918 0.50025
 H266 H 0.19404 0.55521 0.48779
 C267 C 0.20873 0.60497 0.53173
 H268 H 0.21333 0.61864 0.54416
 C269 C 0.19052 0.58916 0.53726
 H270 H 0.18102 0.59082 0.55384
 N271 N 0.22089 0.60287 0.51102
 C272 C 0.25688 0.65760 0.46973
 H273 H 0.27256 0.65976 0.48051
 C274 C 0.25386 0.67131 0.44925
 H275 H 0.26727 0.68406 0.44417
 C276 C 0.22028 0.63825 0.46309
 H277 H 0.20716 0.62549 0.46863
 C278 C 0.21657 0.65163 0.44245
 H279 H 0.20070 0.64897 0.43203
 Zn280 Zn 0.24665 0.62301 0.50368
 N281 N 0.24041 0.64117 0.47601
 C282 C 0.28579 0.60411 0.47815
 N283 N 0.27356 0.60342 0.49894
 C284 C 0.27999 0.58838 0.51681
 C285 C 0.29995 0.57387 0.51448
 C286 C 0.30584 0.58989 0.47509
 C287 C 0.23533 0.66098 0.53346
 C288 C 0.23924 0.67815 0.55070
 C289 C 0.27820 0.66149 0.55736
 C290 C 0.27358 0.64465 0.54001
 N291 N 0.25237 0.64461 0.52854
 H292 H 0.28010 0.61570 0.46392
 H293 H 0.26974 0.58792 0.53300
 H294 H 0.30518 0.56224 0.52894
 H295 H 0.31567 0.59079 0.45862
 H296 H 0.21881 0.66084 0.52375
 H297 H 0.22567 0.69124 0.55439
 H298 H 0.29521 0.66154 0.56624
 H299 H 0.28716 0.63197 0.53545
 C300 C 0.23362 0.66816 0.43540
 C301 C 0.18506 0.57109 0.52138
 C302 C 0.26091 0.67843 0.56270
 C303 C 0.31308 0.57479 0.49349
 C304 C 0.72112 0.91078 0.50498
 H305 H 0.73162 0.91261 0.52089
 C306 C 0.70266 0.92668 0.50028
 H307 H 0.69884 0.94078 0.51263
 C308 C 0.71372 0.89063 0.46903
 H309 H 0.71839 0.87690 0.45666
 C310 C 0.69512 0.90617 0.46365
 H311 H 0.68538 0.90422 0.44725
 N312 N 0.72621 0.89313 0.48949
 C313 C 0.76432 0.83952 0.53077
 H314 H 0.77995 0.83755 0.51986
 C315 C 0.76178 0.82582 0.55132
 H316 H 0.77554 0.81331 0.55634
 C317 C 0.72723 0.85819 0.53755
 H318 H 0.71370 0.87063 0.53200
 C319 C 0.72400 0.84483 0.55825
 H320 H 0.70809 0.84718 0.56872
 Zn321 Zn 0.75257 0.87346 0.49648
 N322 N 0.74734 0.85556 0.52449
 C323 C 0.79202 0.89333 0.52058
 N324 N 0.77909 0.89352 0.50021
 C325 C 0.78445 0.90850 0.48198
 C326 C 0.80398 0.92350 0.48348
 C327 C 0.81170 0.90806 0.52281
 C328 C 0.74128 0.83507 0.46738
 C329 C 0.74492 0.81803 0.44993
 C330 C 0.78327 0.83520 0.44195
 C331 C 0.77893 0.85191 0.45954
 N332 N 0.75811 0.85167 0.47172
 H333 H 0.78718 0.88176 0.53510
 H334 H 0.77365 0.90854 0.46614
 H335 H 0.80834 0.93510 0.46874
 H336 H 0.82209 0.90760 0.53894
 H337 H 0.72508 0.83502 0.47763
 H338 H 0.73147 0.80483 0.44662
 H339 H 0.79993 0.83544 0.43242
 H340 H 0.79237 0.86479 0.46364
 C341 C 0.74151 0.82861 0.56525
 C342 C 0.68959 0.92438 0.47939
 C343 C 0.76613 0.81811 0.43712
 C344 C 0.81781 0.92315 0.50403
 C345 C 0.00875 0.22441 0.40437
 H346 H 0.02437 0.23522 0.40649
 C347 C 0.00577 0.20413 0.41835
 H348 H 0.01917 0.19923 0.43126
 C349 C -0.02778 0.21752 0.38489
 H350 H -0.04090 0.22290 0.37198
 C351 C -0.03145 0.19707 0.39853
 H352 H -0.04728 0.18662 0.39594
 N353 N -0.00772 0.23048 0.38777
 C354 C 0.03202 0.27078 0.33498
 H355 H 0.02180 0.28703 0.33431
 C356 C 0.05212 0.26827 0.32076
 H357 H 0.05749 0.28264 0.30913
 C358 C 0.03765 0.23217 0.35100
 H359 H 0.03186 0.21803 0.36259
 C360 C 0.05783 0.22893 0.33708
 H361 H 0.06764 0.21242 0.33821
 Zn362 Zn -0.00153 0.25798 0.36939
 N363 N 0.02546 0.25302 0.35005
 C364 C 0.02519 0.29448 0.39102
 N365 N 0.00404 0.28297 0.39086
 C366 C -0.01306 0.28789 0.40712
 C367 C -0.00928 0.30516 0.42429
 C368 C 0.02968 0.31185 0.40787
 C369 C -0.03239 0.24948 0.33170
 C370 C -0.05059 0.25422 0.31555
 C371 C -0.05785 0.29140 0.33525
 C372 C -0.03951 0.28598 0.35104
 N373 N -0.02731 0.26522 0.34909
 H374 H 0.03882 0.28990 0.37843
 H375 H -0.02952 0.27816 0.40689
 H376 H -0.02289 0.30883 0.43730
 H377 H 0.04665 0.32075 0.40803
 H378 H -0.02214 0.23332 0.33030
 H379 H -0.05445 0.24164 0.30170
 H380 H -0.06739 0.30801 0.33682
 H381 H -0.03486 0.29851 0.36460
 C382 C 0.06524 0.24721 0.32199
 C383 C -0.01442 0.19025 0.41529
 C384 C -0.06341 0.27538 0.31734
 C385 C 0.01233 0.31718 0.42470
 C386 C -0.01626 0.71170 0.08554
 H387 H -0.03201 0.72267 0.08487
 C388 C -0.01439 0.69187 0.07098
 H389 H -0.02876 0.68749 0.05910
 C390 C 0.02165 0.70378 0.10199
 H391 H 0.03575 0.70855 0.11391
 C392 C 0.02424 0.68384 0.08773
 H393 H 0.04021 0.67318 0.08895
 N394 N 0.00141 0.71696 0.10101
 C395 C -0.03312 0.75452 0.15890
 H396 H -0.02260 0.77049 0.15945
 C397 C -0.05100 0.75083 0.17563
 H398 H -0.05437 0.76402 0.18907
 C399 C -0.04111 0.71740 0.14128
 H400 H -0.03687 0.70414 0.12827
 C401 C -0.05913 0.71302 0.15766
 H402 H -0.06884 0.69652 0.15702
 Zn403 Zn -0.00290 0.74334 0.12115
 N404 N -0.02861 0.73796 0.14208
 C405 C -0.02828 0.78392 0.10440
 N406 N -0.00848 0.77033 0.10175
 C407 C 0.00797 0.77551 0.08489
 C408 C 0.00530 0.79555 0.07043
 C409 C -0.03164 0.80413 0.09030
 C410 C 0.02983 0.73050 0.15618
 C411 C 0.04979 0.73257 0.17060
 C412 C 0.05780 0.77057 0.15231
 C413 C 0.03767 0.76780 0.13822
 N414 N 0.02437 0.74780 0.14012
 H415 H -0.04141 0.77924 0.11752
 H416 H 0.02338 0.76422 0.08295
 H417 H 0.01870 0.79978 0.05735
 H418 H -0.04724 0.81508 0.09276
 H419 H 0.01873 0.71497 0.15759
 H420 H 0.05419 0.71856 0.18310
 H421 H 0.06846 0.78641 0.15052
 H422 H 0.03276 0.78162 0.12581
 C423 C -0.06407 0.72985 0.17502
 C424 C 0.00595 0.67770 0.07229
 C425 C 0.06398 0.75273 0.16853
 C426 C -0.01459 0.81008 0.07331
 C427 C 0.48706 0.21239 0.58318
 H428 H 0.47058 0.22222 0.58233
 C429 C 0.49158 0.19444 0.56688
 H430 H 0.47853 0.19034 0.55348
 C431 C 0.52457 0.20617 0.60119
 H432 H 0.53758 0.21112 0.61424
 C433 C 0.52980 0.18811 0.58523
 H434 H 0.54674 0.17906 0.58618
 N435 N 0.50343 0.21782 0.59994
 C436 C 0.46454 0.25322 0.65635
 H437 H 0.47459 0.26946 0.65740
 C438 C 0.44621 0.24891 0.67239
 H439 H 0.44203 0.26190 0.68580
 C440 C 0.45826 0.21603 0.63816
 H441 H 0.46336 0.20304 0.62516
 C442 C 0.43980 0.21101 0.65390
 H443 H 0.43059 0.19425 0.65284
 Zn444 Zn 0.49667 0.24350 0.62022
 N445 N 0.47015 0.23690 0.63963
 C446 C 0.47051 0.28319 0.60244
 N447 N 0.49097 0.27045 0.60083
 C448 C 0.50819 0.27652 0.58507
 C449 C 0.50560 0.29664 0.57074
 C450 C 0.46720 0.30347 0.58843
 C451 C 0.52802 0.23217 0.65711
 C452 C 0.54579 0.23608 0.67383
 C453 C 0.55164 0.27511 0.65694
 C454 C 0.53377 0.27048 0.64054
 N455 N 0.52242 0.24925 0.64086
 H456 H 0.45682 0.27781 0.61469
 H457 H 0.52414 0.26589 0.58396
 H458 H 0.51960 0.30161 0.55858
 H459 H 0.45107 0.31378 0.59009
 H460 H 0.51839 0.21563 0.65726
 H461 H 0.54996 0.22250 0.68687
 H462 H 0.56039 0.29216 0.65676
 H463 H 0.52867 0.28409 0.62797
 C464 C 0.43381 0.22757 0.67122
 C465 C 0.51318 0.18225 0.56790
 C466 C 0.55762 0.25779 0.67378
 C467 C 0.48501 0.31035 0.57261
 C468 C 0.50642 0.72523 0.90675
 H469 H 0.52285 0.73489 0.90829
 C470 C 0.50135 0.70687 0.92266
 H471 H 0.51393 0.70228 0.93646
 C472 C 0.46952 0.71994 0.88743
 H473 H 0.45694 0.72543 0.87404
 C474 C 0.46374 0.70147 0.90301
 H475 H 0.44682 0.69265 0.90142
 N476 N 0.49061 0.73134 0.88952
 C477 C 0.53215 0.76862 0.83586
 H478 H 0.52195 0.78484 0.83438
 C479 C 0.55239 0.76551 0.82201
 H480 H 0.55788 0.77938 0.80985
 C481 C 0.53757 0.73074 0.85363
 H482 H 0.53164 0.71716 0.86583
 C483 C 0.55794 0.72691 0.84010
 H484 H 0.56777 0.71048 0.84207
 Zn485 Zn 0.49818 0.75777 0.87014
 N486 N 0.52539 0.75153 0.85158
 C487 C 0.52543 0.79434 0.89102
 N488 N 0.50398 0.78340 0.89077
 C489 C 0.48669 0.78929 0.90649
 C490 C 0.49061 0.80692 0.92325
 C491 C 0.53007 0.81205 0.90748
 C492 C 0.46774 0.74863 0.83228
 C493 C 0.44992 0.75319 0.81568
 C494 C 0.44349 0.79140 0.83365
 C495 C 0.46143 0.78613 0.84994
 N496 N 0.47303 0.76495 0.84907
 H497 H 0.53918 0.78901 0.87887
 H498 H 0.46997 0.77999 0.90621
 H499 H 0.47686 0.81131 0.93588
 H500 H 0.54729 0.82045 0.90777
 H501 H 0.47751 0.73211 0.83177
 H502 H 0.44587 0.74012 0.80235
 H503 H 0.43440 0.80832 0.83437
 H504 H 0.46625 0.79909 0.86303
 C505 C 0.56550 0.74454 0.82430
 C506 C 0.47977 0.69496 0.92082
 C507 C 0.43770 0.77477 0.81637
 C508 C 0.51255 0.81831 0.92381
 C509 C 0.16849 0.23548 0.26172
 N510 N 0.16056 0.21777 0.27600
 N511 N 0.13989 0.21988 0.28722
 C512 C 0.12653 0.23975 0.28449
 N513 N 0.13445 0.25744 0.27018
 N514 N 0.15512 0.25534 0.25896
 C515 C 0.19110 0.23357 0.25028
 C516 C 0.21026 0.23223 0.24091
 C517 C 0.10469 0.24234 0.29723
 C518 C 0.08657 0.24456 0.30830
 C519 C 0.66888 0.73452 0.76398
 N520 N 0.66494 0.72102 0.78357
 N521 N 0.64431 0.72234 0.79497
 C522 C 0.62700 0.73718 0.78712
 N523 N 0.63093 0.75065 0.76751
 N524 N 0.65156 0.74934 0.75611
 C525 C 0.69140 0.73376 0.75223
 C526 C 0.71047 0.73341 0.74259
 C527 C 0.60515 0.73930 0.79993
 C528 C 0.58697 0.74147 0.81092
 C529 C 0.35529 0.80124 0.73265
 N530 N 0.35791 0.81533 0.75181
 N531 N 0.37370 0.80987 0.76856
 C532 C 0.38736 0.79015 0.76665
 N533 N 0.38473 0.77604 0.74750
 N534 N 0.36893 0.78151 0.73076
 C535 C 0.33884 0.80755 0.71424
 C536 C 0.32529 0.81310 0.69861
 C537 C 0.40483 0.78461 0.78434
 C538 C 0.41971 0.78008 0.79904
 C539 C -0.14668 0.30255 0.23469
 N540 N -0.14001 0.31890 0.25082
 N541 N -0.12415 0.31338 0.26750
 C542 C -0.11448 0.29136 0.26854
 N543 N -0.12118 0.27500 0.25242
 N544 N -0.13704 0.28052 0.23575
 C545 C -0.16306 0.30876 0.21617
 C546 C -0.17645 0.31411 0.20034
 C547 C -0.09682 0.28565 0.28599
 C548 C -0.08172 0.28094 0.30041
 C549 C -0.14492 0.70257 0.25970
 N550 N -0.12799 0.71898 0.26396
 N551 N -0.11262 0.72505 0.24707
 C552 C -0.11371 0.71489 0.22541
 N553 N -0.13066 0.69851 0.22114
 N554 N -0.14603 0.69244 0.23803
 C555 C -0.16085 0.69534 0.27818
 C556 C -0.17393 0.68897 0.29386
 C557 C -0.09655 0.72067 0.20755
 C558 C -0.08188 0.72510 0.19266
 C559 C 0.35308 0.20186 0.75649
 N560 N 0.36453 0.22294 0.75631
 N561 N 0.37973 0.22822 0.73900
 C562 C 0.38393 0.21259 0.72136
 N563 N 0.37245 0.19153 0.72152
 N564 N 0.35725 0.18625 0.73883
 C565 C 0.33741 0.19578 0.77559
 C566 C 0.32454 0.19037 0.79179
 C567 C 0.40101 0.21790 0.70328
 C568 C 0.41575 0.22231 0.68845
 C569 C 0.63583 0.28642 0.75991
 N570 N 0.61948 0.26928 0.76379
 N571 N 0.60475 0.26291 0.74656
 C572 C 0.60593 0.27348 0.72492
 N573 N 0.62231 0.29059 0.72104
 N574 N 0.63704 0.29696 0.73827
 C575 C 0.65100 0.29398 0.77875
 C576 C 0.66344 0.30065 0.79471
 C577 C 0.58934 0.26744 0.70673
 C578 C 0.57506 0.26279 0.69161
 C579 C 0.16506 0.76021 0.23292
 N580 N 0.14868 0.74345 0.23815
 N581 N 0.12853 0.74240 0.22590
 C582 C 0.12416 0.75807 0.20807
 N583 N 0.14052 0.77485 0.20286
 N584 N 0.16067 0.77590 0.21510
 C585 C 0.18709 0.76084 0.24556
 C586 C 0.20577 0.76111 0.25592
 C587 C 0.10280 0.75646 0.19441
 C588 C 0.08502 0.75488 0.18272
 C589 C 0.26131 0.16557 0.23143
 N590 N 0.27558 0.15844 0.21350
 N591 N 0.28631 0.13738 0.21449
 C592 C 0.28308 0.12280 0.23343
 N593 N 0.26877 0.12991 0.25134
 N594 N 0.25804 0.15098 0.25035
 C595 C 0.25059 0.18867 0.23084
 C596 C 0.24198 0.20826 0.23053
 C597 C 0.29553 0.10063 0.23503
 C598 C 0.30642 0.08227 0.23664
 C599 C 0.76359 0.66888 0.73140
 N600 N 0.75549 0.65128 0.74573
 N601 N 0.76655 0.63038 0.74655
 C602 C 0.78604 0.62645 0.73306
 N603 N 0.79411 0.64403 0.71870
 N604 N 0.78305 0.66493 0.71788
 C605 C 0.75223 0.69167 0.73120
 C606 C 0.74294 0.71096 0.73133
 C607 C 0.79850 0.60428 0.73468
 C608 C 0.80920 0.58582 0.73644
 C609 C 0.72898 0.35317 0.79200
 N610 N 0.75095 0.35190 0.80167
 N611 N 0.76751 0.36752 0.79546
 C612 C 0.76262 0.38487 0.77939
 N613 N 0.74066 0.38611 0.76969
 N614 N 0.72410 0.37049 0.77590
 C615 C 0.71087 0.33692 0.79934
 C616 C 0.69544 0.32359 0.80571
 C617 C 0.78017 0.40226 0.77348
 C618 C 0.79487 0.41707 0.76903
 C619 C 0.25892 -0.17491 0.26787
 N620 N 0.25344 -0.15842 0.25110
 N621 N 0.26483 -0.13779 0.25037
 C622 C 0.28203 -0.13302 0.26639
 N623 N 0.28747 -0.14948 0.28319
 N624 N 0.27609 -0.17011 0.28392
 C625 C 0.24734 -0.19749 0.26807
 C626 C 0.23793 -0.21664 0.26795
 C627 C 0.29499 -0.11124 0.26496
 C628 C 0.30621 -0.09316 0.26343
 C629 C 0.25654 -0.13794 0.70171
 N630 N 0.25946 -0.12325 0.72036
 N631 N 0.24225 -0.10830 0.72656
 C632 C 0.22159 -0.10761 0.71430
 N633 N 0.21865 -0.12234 0.69568
 N634 N 0.23586 -0.13728 0.68947
 C635 C 0.27542 -0.15335 0.69445
 C636 C 0.29143 -0.16599 0.68807
 C637 C 0.20346 -0.09082 0.72034
 C638 C 0.18844 -0.07638 0.72508
 C639 C 0.75389 0.36216 0.20118
 N640 N 0.75393 0.37329 0.22238
 N641 N 0.73645 0.38814 0.22805
 C642 C 0.71840 0.39232 0.21269
 N643 N 0.71834 0.38117 0.19151
 N644 N 0.73582 0.36631 0.18584
 C645 C 0.77319 0.34693 0.19466
 C646 C 0.78956 0.33445 0.18886
 C647 C 0.70014 0.40909 0.21840
 C648 C 0.68515 0.42358 0.22313
 C649 C 0.75706 0.64094 0.29021
 N650 N 0.73625 0.64098 0.30221
 N651 N 0.71876 0.62657 0.29587
 C652 C 0.72155 0.61170 0.27732
 N653 N 0.74235 0.61169 0.26529
 N654 N 0.75984 0.62609 0.27164
 C655 C 0.77624 0.65571 0.29767
 C656 C 0.79250 0.66780 0.30424
 C657 C 0.70313 0.59542 0.27119
 C658 C 0.68787 0.58138 0.26641
 C659 C 0.25519 0.14307 0.79072
 N660 N 0.23738 0.13819 0.80610
 N661 N 0.22001 0.12353 0.80000
 C662 C 0.21993 0.11331 0.77834
 N663 N 0.23772 0.11822 0.76295
 N664 N 0.25509 0.13288 0.76904
 C665 C 0.27443 0.15802 0.79765
 C666 C 0.29087 0.17019 0.80359
 C667 C 0.20183 0.09668 0.77220
 C668 C 0.18693 0.08231 0.76729
 C669 C 0.23501 0.26313 0.16646
 N670 N 0.25526 0.26271 0.15353
 N671 N 0.25651 0.27427 0.13288
 C672 C 0.23755 0.28659 0.12454
 N673 N 0.21729 0.28699 0.13745
 N674 N 0.21604 0.27543 0.15810
 C675 C 0.23392 0.25135 0.18905
 C676 C 0.23315 0.24174 0.20820
 C677 C 0.23916 0.29974 0.10274
 C678 C 0.24057 0.31114 0.08465
 C679 C 0.73333 0.76686 0.66851
 N680 N 0.74789 0.75937 0.65096
 N681 N 0.74893 0.77117 0.63044
 C682 C 0.73544 0.79082 0.62684
 N683 N 0.72085 0.79829 0.64438
 N684 N 0.71981 0.78649 0.66490
 C685 C 0.73279 0.75461 0.69088
 C686 C 0.73257 0.74456 0.70982
 C687 C 0.73715 0.80396 0.60504
 C688 C 0.73893 0.81513 0.58684
 C689 C 0.79188 0.73350 0.35642
 N690 N 0.80262 0.75493 0.35543
 N691 N 0.79695 0.77174 0.37089
 C692 C 0.78037 0.76763 0.38780
 N693 N 0.76959 0.74621 0.38877
 N694 N 0.77526 0.72940 0.37331
 C695 C 0.79856 0.71513 0.34030
 C696 C 0.80441 0.69952 0.32703
 C697 C 0.77488 0.78545 0.40494
 C698 C 0.77066 0.80036 0.41953
 C699 C 0.29232 0.23768 -0.14646
 N700 N 0.27060 0.23850 -0.13620
 N701 N 0.26527 0.25554 -0.12088
 C702 C 0.28148 0.27228 -0.11534
 N703 N 0.30317 0.27148 -0.12562
 N704 N 0.30851 0.25444 -0.14095
 C705 C 0.29840 0.21877 -0.16220
 C706 C 0.30371 0.20261 -0.17505
 C707 C 0.27603 0.29006 -0.09813
 C708 C 0.27155 0.30471 -0.08334
 C709 C 0.69927 0.25646 -0.14267
 N710 N 0.68566 0.23698 -0.13928
 N711 N 0.69209 0.22031 -0.12366
 C712 C 0.71234 0.22262 -0.11098
 N713 N 0.72598 0.24208 -0.11440
 N714 N 0.71954 0.25874 -0.13002
 C715 C 0.69184 0.27485 -0.15877
 C716 C 0.68529 0.29047 -0.17196
 C717 C 0.71877 0.20517 -0.09346
 C718 C 0.72399 0.19080 -0.07840
 C719 C 0.22607 0.72866 0.33136
 N720 N 0.23807 0.73779 0.34996
 N721 N 0.23871 0.72629 0.37067
 C722 C 0.22735 0.70532 0.37341
 N723 N 0.21531 0.69620 0.35482
 N724 N 0.21468 0.70771 0.33411
 C725 C 0.22619 0.74055 0.30879
 C726 C 0.22663 0.75028 0.28968
 C727 C 0.22893 0.69244 0.39538
 C728 C 0.23077 0.68145 0.41370
 C729 C 0.28904 0.76556 0.63961
 N730 N 0.27059 0.76846 0.62444
 N731 N 0.26441 0.75106 0.60991
 C732 C 0.27647 0.73022 0.61012
 N733 N 0.29489 0.72731 0.62531
 N734 N 0.30108 0.74471 0.63984
 C735 C 0.29629 0.78464 0.65457
 C736 C 0.30258 0.80088 0.66678
 C737 C 0.27047 0.71186 0.59378
 C738 C 0.26586 0.69655 0.57976
 C739 C 0.78940 0.26556 0.14097
 N740 N 0.80371 0.24631 0.13899
 N741 N 0.79802 0.22876 0.12443
 C742 C 0.77784 0.22992 0.11142
 N743 N 0.76351 0.24915 0.11343
 N744 N 0.76921 0.26670 0.12798
 C745 C 0.79600 0.28487 0.15592
 C746 C 0.80173 0.30131 0.16813
 C747 C 0.77222 0.21149 0.09503
 C748 C 0.76778 0.19622 0.08091
 C749 C 0.47815 0.41422 0.51173
 N750 N 0.49481 0.39781 0.50614
 N751 N 0.49551 0.37702 0.51750
 C752 C 0.47957 0.37201 0.53478
 N753 N 0.46288 0.38840 0.54035
 N754 N 0.46218 0.40919 0.52899
 C755 C 0.47798 0.43696 0.50019
 C756 C 0.47806 0.45625 0.49083
 C757 C 0.48100 0.35006 0.54772
 C758 C 0.48259 0.33184 0.55891
 C759 C -0.02230 0.91310 0.01098
 N760 N -0.00618 0.89633 0.00494
 N761 N -0.00528 0.87572 0.01662
 C762 C -0.02049 0.87126 0.03471
 N763 N -0.03664 0.88802 0.04072
 N764 N -0.03754 0.90862 0.02904
 C765 C -0.02257 0.93568 -0.00089
 C766 C -0.02247 0.95485 -0.01052
 C767 C -0.01884 0.84949 0.04795
 C768 C -0.01710 0.83141 0.05936
 C769 C 0.01272 0.57434 0.01227
 N770 N 0.03026 0.58077 0.02728
 N771 N 0.02926 0.60151 0.03835
 C772 C 0.01071 0.61646 0.03473
 N773 N -0.00682 0.61004 0.01969
 N774 N -0.00582 0.58930 0.00862
 C775 C 0.01333 0.55164 0.00103
 C776 C 0.01353 0.53243 -0.00817
 C777 C 0.00917 0.63833 0.04741
 C778 C 0.00775 0.65644 0.05850
 C779 C 0.54139 0.10169 0.48391
 N780 N 0.55600 0.10518 0.50262
 N781 N 0.55009 0.12044 0.51953
 C782 C 0.52939 0.13267 0.51824
 N783 N 0.51477 0.12916 0.49954
 N784 N 0.52068 0.11389 0.48263
 C785 C 0.54817 0.08593 0.46526
 C786 C 0.55406 0.07302 0.44937
 C787 C 0.52344 0.14975 0.53598
 C788 C 0.51865 0.16441 0.55065
 C789 C -0.02166 0.08729 0.47758
 N790 N -0.03358 0.08988 0.45685
 N791 N -0.03302 0.11039 0.44498
 C792 C -0.02053 0.12893 0.45351
 N793 N -0.00865 0.12637 0.47426
 N794 N -0.00921 0.10586 0.48613
 C795 C -0.02146 0.06491 0.48983
 C796 C -0.02097 0.04593 0.49980
 C797 C -0.01903 0.15067 0.44023
 C798 C -0.01724 0.16879 0.42892
 C799 C 0.44960 0.61352 1.00442
 N800 N 0.43505 0.61779 0.98573
 N801 N 0.44129 0.63316 0.96881
 C802 C 0.46225 0.64472 0.97008
 N803 N 0.47681 0.64042 0.98876
 N804 N 0.47058 0.62505 1.00567
 C805 C 0.44246 0.59768 1.02309
 C806 C 0.43619 0.58470 1.03895
 C807 C 0.46855 0.66197 0.95238
 C808 C 0.47371 0.67682 0.93781
 C809 C 0.54017 0.89509 1.01119
 N810 N 0.55362 0.89392 0.99132
 N811 N 0.54761 0.87953 0.97374
 C812 C 0.52796 0.86588 0.97549
 N813 N 0.51448 0.86708 0.99534
 N814 N 0.52050 0.88147 1.01292
 C815 C 0.54719 0.90982 1.03053
 C816 C 0.55331 0.92184 1.04699
 C817 C 0.52210 0.84959 0.95703
 C818 C 0.51754 0.83553 0.94176
 C819 C 0.03940 0.39370 0.51251
 N820 N 0.05219 0.39345 0.49217
 N821 N 0.04626 0.37902 0.47459
 C822 C 0.02736 0.36441 0.47681
 N823 N 0.01455 0.36469 0.49713
 N824 N 0.02047 0.37912 0.51471
 C825 C 0.04633 0.40855 0.53179
 C826 C 0.05235 0.42068 0.54820
 C827 C 0.02160 0.34816 0.45829
 C828 C 0.01715 0.33420 0.44289
 C829 C 0.41522 0.51201 0.48330
 N830 N 0.40016 0.50754 0.50150
 N831 N 0.37975 0.51935 0.50321
 C832 C 0.37377 0.53598 0.48676
 N833 N 0.38882 0.54042 0.46854
 N834 N 0.40923 0.52862 0.46683
 C835 C 0.43754 0.49986 0.48192
 C836 C 0.45645 0.48987 0.48106
 C837 C 0.35217 0.54925 0.48901
 C838 C 0.33423 0.56071 0.49102
 C839 C 0.91541 0.01164 -0.01916
 N840 N 0.89890 0.00588 -0.00267
 N841 N 0.87877 0.01820 -0.00121
 C842 C 0.87455 0.03666 -0.01619
 N843 N 0.89105 0.04240 -0.03271
 N844 N 0.91118 0.03007 -0.03417
 C845 C 0.93747 -0.00104 -0.02016
 C846 C 0.95620 -0.01138 -0.02076
 C847 C 0.85326 0.05045 -0.01403
 C848 C 0.83554 0.06223 -0.01187
 C849 C 0.60517 -0.01200 0.04819
 N850 N 0.61572 -0.01165 0.02660
 N851 N 0.63140 0.00511 0.02112
 C852 C 0.63702 0.02202 0.03708
 N853 N 0.62645 0.02169 0.05865
 N854 N 0.61076 0.00493 0.06413
 C855 C 0.58891 -0.03052 0.05437
 C856 C 0.57556 -0.04631 0.05974
 C857 C 0.65444 0.03962 0.03144
 C858 C 0.66933 0.05419 0.02677
 C859 C 0.10325 0.48762 0.54906
 N860 N 0.10981 0.50384 0.56536
 N861 N 0.12533 0.52072 0.55976
 C862 C 0.13476 0.52187 0.53768
 N863 N 0.12818 0.50567 0.52137
 N864 N 0.11266 0.48880 0.52697
 C865 C 0.08725 0.46890 0.55536
 C866 C 0.07415 0.45292 0.56081
 C867 C 0.15211 0.53952 0.53189
 C868 C 0.16698 0.55406 0.52708
 C869 C 0.07747 0.47852 -0.01993
 N870 N 0.09518 0.48591 -0.00557
 N871 N 0.11593 0.47456 -0.00522
 C872 C 0.11960 0.45548 -0.01923
 N873 N 0.10191 0.44811 -0.03361
 N874 N 0.08116 0.45946 -0.03396
 C875 C 0.05484 0.49018 -0.01967
 C876 C 0.03566 0.49965 -0.01923
 C877 C 0.14161 0.44271 -0.01812
 C878 C 0.15996 0.43178 -0.01674
 C879 C 0.60610 1.00650 0.45077
 N880 N 0.61820 1.00797 0.47146
 N881 N 0.63406 0.99140 0.47741
 C882 C 0.63829 0.97286 0.46285
 N883 N 0.62616 0.97137 0.44219
 N884 N 0.61030 0.98794 0.43623
 C885 C 0.58968 1.02479 0.44395
 C886 C 0.57621 1.04038 0.43798
 C887 C 0.65599 0.95551 0.46886
 C888 C 0.67115 0.94117 0.47374
 C889 C 0.91775 0.98909 0.50984
 N890 N 0.91150 0.97475 0.52818
 N891 N 0.89151 0.96232 0.52732
 C892 C 0.87716 0.96386 0.50810
 N893 N 0.88338 0.97823 0.48977
 N894 N 0.90338 0.99066 0.49062
 C895 C 0.93966 1.00184 0.51041
 C896 C 0.95827 1.01225 0.51074
 C897 C 0.85604 0.94988 0.50684
 C898 C 0.83850 0.93784 0.50563
 C899 C 0.38721 0.51639 0.03606
 N900 N 0.38932 0.49456 0.04610
 N901 N 0.37465 0.47722 0.03999
 C902 C 0.35743 0.48117 0.02365
 N903 N 0.35535 0.50298 0.01358
 N904 N 0.37002 0.52033 0.01969
 C905 C 0.40236 0.53532 0.04336
 C906 C 0.41476 0.55140 0.04976
 C907 C 0.34096 0.46280 0.01791
 C908 C 0.32684 0.44747 0.01358
 C909 C 0.50924 0.48011 0.41607
 N910 N 0.52691 0.46465 0.41087
 N911 N 0.53814 0.46602 0.39014
 C912 C 0.53204 0.48289 0.37398
 N913 N 0.51434 0.49832 0.37916
 N914 N 0.50311 0.49695 0.39989
 C915 C 0.49784 0.47927 0.43878
 C916 C 0.48861 0.47884 0.45805
 C917 C 0.54482 0.48503 0.35210
 C918 C 0.55586 0.48720 0.33394
 C919 C 0.00896 -0.02181 0.91450
 N920 N 0.00220 -0.00555 0.89799
 N921 N 0.01344 -0.00411 0.87726
 C922 C 0.03177 -0.01889 0.87242
 N923 N 0.03851 -0.03519 0.88892
 N924 N 0.02727 -0.03663 0.90964
 C925 C -0.00243 -0.02263 0.93721
 C926 C -0.01169 -0.02293 0.95647
 C927 C 0.04460 -0.01659 0.85058
 C928 C 0.05573 -0.01430 0.83249
 C929 C 0.01061 0.02443 0.57533
 N930 N 0.02966 0.03836 0.57949
 N931 N 0.04072 0.03740 0.60034
 C932 C 0.03307 0.02248 0.61766
 N933 N 0.01400 0.00859 0.61351
 N934 N 0.00294 0.00955 0.59267
 C935 C -0.00064 0.02468 0.55254
 C936 C -0.00984 0.02450 0.53325
 C937 C 0.04567 0.02062 0.63968
 C938 C 0.05661 0.01866 0.65794
 C939 C 0.48090 0.55012 0.10201
 N940 N 0.49971 0.56449 0.10571
 N941 N 0.51635 0.55847 0.12143
 C942 C 0.51467 0.53792 0.13393
 N943 N 0.49587 0.52353 0.13020
 N944 N 0.47923 0.52955 0.11448
 C945 C 0.46254 0.55701 0.08572
 C946 C 0.44690 0.56299 0.07236
 C947 C 0.53217 0.53183 0.15142
 C948 C 0.54668 0.52690 0.16636
 C949 C 0.50679 -0.04483 0.10858
 N950 N 0.48628 -0.05727 0.10884
 N951 N 0.46899 -0.05162 0.12387
 C952 C 0.47168 -0.03336 0.13909
 N953 N 0.49217 -0.02090 0.13880
 N954 N 0.50946 -0.02655 0.12377
 C955 C 0.52577 -0.05155 0.09310
 C956 C 0.54188 -0.05752 0.08041
 C957 C 0.45349 -0.02795 0.15597
 C958 C 0.43844 -0.02371 0.17051
 C959 C 1.00555 0.45317 0.61000
 N960 N 1.00661 0.47337 0.62279
 N961 N 0.98930 0.47886 0.63785
 C962 C 0.97041 0.46432 0.64058
 N963 N 0.96933 0.44414 0.62776
 N964 N 0.98664 0.43865 0.61270
 C965 C 1.02460 0.44680 0.59445
 C966 C 1.04076 0.44114 0.58167
 C967 C 0.95223 0.46980 0.65746
 C968 C 0.93725 0.47429 0.67198
 C969 C 0.97931 0.50926 0.91883
 N970 N 0.98218 0.49076 0.90391
 N971 N 0.97012 0.48995 0.88364
 C972 C 0.95484 0.50763 0.87768
 N973 N 0.95199 0.52614 0.89259
 N974 N 0.96405 0.52695 0.91286
 C975 C 0.99174 0.50977 0.94097
 C976 C 1.00194 0.51005 0.95974
 C977 C 0.94129 0.50639 0.85624
 C978 C 0.92964 0.50516 0.83841
 C979 C 0.50682 0.03665 0.39028
 N980 N 0.50960 0.01790 0.37565
 N981 N 0.49219 0.01160 0.36109
 C982 C 0.47146 0.02384 0.36074
 N983 N 0.46866 0.04255 0.37540
 N984 N 0.48607 0.04886 0.38996
 C985 C 0.52595 0.04411 0.40515
 C986 C 0.54219 0.05068 0.41728
 C987 C 0.45318 0.01781 0.34422
 C988 C 0.43807 0.01314 0.32993
   
