data_POSCAR
  _audit_creation_date              2014-09-24
  _audit_creation_method            'ToBaCCo'
  _symmetry_space_group_name_H-M    'P1'
  _symmetry_Int_Tables_number       1
  _symmetry_cell_setting            triclinic
  loop_
  _symmetry_equiv_pos_as_xyz
 x,y,z
_cell_length_a 48.5816
_cell_length_b 48.6920
_cell_length_c 48.5552
_cell_angle_alpha 89.941400
_cell_angle_beta 89.953700
_cell_angle_gamma 89.941500
loop_
  _atom_site_label
  _atom_site_type_symbol
  _atom_site_fract_x
  _atom_site_fract_y
  _atom_site_fract_z
N1 N 0.14337 0.16191 0.21875
 N2 N 0.16275 0.14299 0.21868
 C3 C 0.15870 0.12587 0.24015
 C4 C 0.13567 0.13470 0.25421
 C5 C 0.12636 0.15753 0.24023
 H6 H 0.17154 0.10845 0.24529
 H7 H 0.10867 0.17005 0.24534
 Cu8 Cu 0.19151 0.14291 0.19068
 Cu9 Cu 0.14178 0.19104 0.19124
 Cu10 Cu 0.19217 0.19070 0.14067
 N11 N 0.21947 0.14272 0.16187
 N12 N 0.21952 0.16150 0.14236
 C13 C 0.24093 0.15700 0.12531
 C14 C 0.25491 0.13425 0.13475
 C15 C 0.24093 0.12556 0.15789
 H16 H 0.24602 0.16941 0.10753
 H17 H 0.24611 0.10825 0.17087
 N18 N 0.16282 0.21858 0.14236
 N19 N 0.14363 0.21876 0.16165
 C20 C 0.12689 0.24047 0.15747
 C21 C 0.13609 0.25441 0.13456
 C22 C 0.15879 0.24015 0.12541
 H23 H 0.10940 0.24584 0.17017
 H24 H 0.17145 0.24522 0.10780
 H25 H 0.16121 0.16917 0.16051
 H26 H 0.18331 0.19165 0.18238
 N27 N -0.14267 0.83811 0.21868
 N28 N -0.16197 0.85709 0.21878
 C29 C -0.15773 0.87410 0.24026
 C30 C -0.13465 0.86517 0.25414
 C31 C -0.12553 0.84238 0.24003
 H32 H -0.17042 0.89158 0.24550
 H33 H -0.10785 0.82980 0.24499
 Cu34 Cu -0.19082 0.85733 0.19094
 Cu35 Cu -0.14140 0.80902 0.19123
 Cu36 Cu -0.19215 0.80951 0.14105
 N37 N -0.21901 0.85767 0.16242
 N38 N -0.21935 0.83891 0.14293
 C39 C -0.24094 0.84356 0.12616
 C40 C -0.25471 0.86639 0.13576
 C41 C -0.24042 0.87494 0.15871
 H42 H -0.24630 0.83118 0.10848
 H43 H -0.24535 0.89228 0.17170
 N44 N -0.16286 0.78146 0.14263
 N45 N -0.14353 0.78130 0.16177
 C46 C -0.12683 0.75959 0.15755
 C47 C -0.13619 0.74557 0.13481
 C48 C -0.15894 0.75984 0.12575
 H49 H -0.10926 0.75424 0.17012
 H50 H -0.17171 0.75474 0.10826
 H51 H -0.16101 0.83090 0.16040
 H52 H -0.18304 0.80856 0.18252
 N53 N -0.14374 0.16144 -0.21822
 N54 N -0.16314 0.14259 -0.21800
 C55 C -0.15921 0.12540 -0.23939
 C56 C -0.13626 0.13407 -0.25362
 C57 C -0.12683 0.15689 -0.23975
 H58 H -0.17212 0.10803 -0.24439
 H59 H -0.10919 0.16935 -0.24508
 Cu60 Cu -0.19169 0.14255 -0.18988
 Cu61 Cu -0.14216 0.19069 -0.19080
 Cu62 Cu -0.19274 0.19053 -0.14028
 N63 N -0.21982 0.14245 -0.16130
 N64 N -0.22003 0.16129 -0.14188
 C65 C -0.24147 0.15672 -0.12488
 C66 C -0.25529 0.13389 -0.13431
 C67 C -0.24114 0.12520 -0.15732
 H68 H -0.24669 0.16916 -0.10718
 H69 H -0.24612 0.10777 -0.17017
 N70 N -0.16345 0.21846 -0.14212
 N71 N -0.14417 0.21855 -0.16133
 C72 C -0.12746 0.24025 -0.15718
 C73 C -0.13678 0.25430 -0.13437
 C74 C -0.15951 0.24007 -0.12526
 H75 H -0.10991 0.24554 -0.16982
 H76 H -0.17225 0.24519 -0.10773
 H77 H -0.16156 0.16902 -0.15981
 H78 H -0.18367 0.19135 -0.18189
 N79 N 0.14394 0.83902 -0.21863
 N80 N 0.16336 0.85784 -0.21803
 C81 C 0.15983 0.87514 -0.23944
 C82 C 0.13708 0.86658 -0.25404
 C83 C 0.12743 0.84369 -0.24041
 H84 H 0.17282 0.89253 -0.24420
 H85 H 0.10983 0.83131 -0.24601
 Cu86 Cu 0.19154 0.85754 -0.18953
 Cu87 Cu 0.14176 0.80962 -0.19144
 Cu88 Cu 0.19179 0.80873 -0.14053
 N89 N 0.21951 0.85683 -0.16083
 N90 N 0.21946 0.83765 -0.14171
 C91 C 0.24097 0.84162 -0.12469
 C92 C 0.25509 0.86444 -0.13373
 C93 C 0.24110 0.87370 -0.15663
 H94 H 0.24603 0.82880 -0.10719
 H95 H 0.24636 0.89123 -0.16926
 N96 N 0.16214 0.78123 -0.14276
 N97 N 0.14307 0.78155 -0.16215
 C98 C 0.12603 0.76004 -0.15831
 C99 C 0.13491 0.74568 -0.13553
 C100 C 0.15773 0.75952 -0.12609
 H101 H 0.10855 0.75508 -0.17114
 H102 H 0.17020 0.75407 -0.10848
 H103 H 0.16101 0.83073 -0.16004
 H104 H 0.18325 0.80866 -0.18226
 N105 N 0.16275 1.14309 0.78118
 N106 N 0.14374 1.16236 0.78109
 C107 C 0.12687 1.15836 0.75945
 C108 C 0.13595 1.13547 0.74545
 C109 C 0.15866 1.12620 0.75964
 H110 H 0.10939 1.17108 0.75418
 H111 H 0.17126 1.10858 0.75464
 Cu112 Cu 0.14316 1.19084 0.80916
 Cu113 Cu 0.19160 1.14141 0.80890
 Cu114 Cu 0.19098 1.19187 0.85915
 N115 N 0.14311 1.21904 0.83750
 N116 N 0.16189 1.21924 0.85701
 C117 C 0.15743 1.24081 0.87373
 C118 C 0.13472 1.25475 0.86410
 C119 C 0.12601 1.24055 0.84118
 H120 H 0.16981 1.24605 0.89146
 H121 H 0.10864 1.24560 0.82820
 N122 N 0.21875 1.16248 0.85783
 N123 N 0.21902 1.14324 0.83866
 C124 C 0.24064 1.12647 0.84309
 C125 C 0.25444 1.13572 0.86602
 C126 C 0.24020 1.15847 0.87494
 H127 H 0.24610 1.10897 0.83051
 H128 H 0.24524 1.17121 0.89245
 H129 H 0.16954 1.16092 0.83951
 H130 H 0.19203 1.18299 0.81747
 N131 N 0.83850 0.85765 0.78096
 N132 N 0.85763 0.83851 0.78110
 C133 C 0.87469 0.84259 0.75958
 C134 C 0.86561 0.86543 0.74548
 C135 C 0.84271 0.87455 0.75944
 H136 H 0.89223 0.82989 0.75441
 H137 H 0.82999 0.89203 0.75421
 Cu138 Cu 0.85786 0.80996 0.80910
 Cu139 Cu 0.80928 0.85907 0.80831
 Cu140 Cu 0.80927 0.80840 0.85848
 N141 N 0.85767 0.78163 0.83732
 N142 N 0.83859 0.78115 0.85657
 C143 C 0.84296 0.75943 0.87317
 C144 C 0.86590 0.74572 0.86371
 C145 C 0.87482 0.76018 0.84101
 H146 H 0.83034 0.75392 0.89068
 H147 H 0.89236 0.75531 0.82818
 N148 N 0.78139 0.83779 0.85681
 N149 N 0.78144 0.85707 0.83765
 C150 C 0.75986 0.87394 0.84179
 C151 C 0.74570 0.86475 0.86454
 C152 C 0.75973 0.84190 0.87368
 H153 H 0.75474 0.89156 0.82923
 H154 H 0.75450 0.82926 0.89124
 H155 H 0.83095 0.83952 0.83942
 H156 H 0.80891 0.81746 0.81702
 N157 N 0.16113 0.85640 1.21857
 N158 N 0.14231 0.83699 1.21858
 C159 C 0.12518 0.84091 1.24006
 C160 C 0.13387 0.86392 1.25404
 C161 C 0.15664 0.87333 1.24002
 H162 H 0.10784 0.82800 1.24528
 H163 H 0.16908 0.89100 1.24514
 Cu164 Cu 0.14237 0.80832 1.19077
 Cu165 Cu 0.19036 0.85799 1.19116
 Cu166 Cu 0.19035 0.80740 1.14093
 N167 N 0.14232 0.78034 1.16227
 N168 N 0.16116 0.78015 1.14280
 C169 C 0.15669 0.75866 1.12598
 C170 C 0.13389 0.74482 1.13552
 C171 C 0.12517 0.75894 1.15849
 H172 H 0.16913 0.75341 1.10827
 H173 H 0.10778 0.75389 1.17145
 N174 N 0.21815 0.83673 1.14255
 N175 N 0.21817 0.85602 1.16166
 C176 C 0.23985 0.87275 1.15742
 C177 C 0.25393 0.86343 1.13465
 C178 C 0.23980 0.84067 1.12565
 H179 H 0.24512 0.89031 1.16996
 H180 H 0.24502 0.82791 1.10819
 H181 H 0.16864 0.83836 1.16040
 H182 H 0.19120 0.81650 1.18250
 N183 N 0.83805 1.14366 1.21879
 N184 N 0.85725 1.16267 1.21788
 C185 C 0.87446 1.15917 1.23935
 C186 C 0.86538 1.13689 1.25431
 C187 C 0.84237 1.12741 1.24081
 H188 H 0.89217 1.17183 1.24385
 H189 H 0.82971 1.11008 1.24662
 Cu190 Cu 0.85789 1.19025 1.18889
 Cu191 Cu 0.80888 1.14140 1.19154
 Cu192 Cu 0.80814 1.19117 1.14059
 N193 N 0.85640 1.21858 1.16067
 N194 N 0.83692 1.21882 1.14186
 C195 C 0.84059 1.24060 1.12515
 C196 C 0.86349 1.25463 1.13410
 C197 C 0.87314 1.24025 1.15656
 H198 H 0.82753 1.24591 1.10792
 H199 H 0.89090 1.24532 1.16898
 N200 N 0.78073 1.16154 1.14276
 N201 N 0.78101 1.14255 1.16221
 C202 C 0.75960 1.12543 1.15835
 C203 C 0.74534 1.13419 1.13549
 C204 C 0.75911 1.15701 1.12601
 H205 H 0.75464 1.10798 1.17121
 H206 H 0.75369 1.16939 1.10833
 H207 H 0.83015 1.16021 1.15981
 H208 H 0.80875 1.18287 1.18235
 O209 O 0.46119 0.94945 0.95200
 O210 O 0.43099 0.97563 0.97727
 C211 C 0.43655 0.95675 0.95934
 O212 O 0.53850 0.95217 1.05136
 O213 O 0.56872 0.97652 1.02433
 C214 C 0.56317 0.95917 1.04378
 O215 O 0.46111 0.94929 1.04851
 O216 O 0.43096 0.97558 1.02323
 C217 C 0.43650 0.95663 1.04112
 O218 O 0.53858 0.95249 0.94915
 O219 O 0.56874 0.97659 0.97640
 C220 C 0.56321 0.95940 0.95686
 Zr221 Zr 0.49992 0.96437 0.96563
 O222 O 0.50280 0.92103 0.96823
 O223 O 0.49781 0.96126 0.92230
 Zr224 Zr 0.49982 0.96426 1.03492
 O225 O 0.50095 0.92114 1.03033
 O226 O 0.49874 0.96026 1.07826
 O227 O 0.47515 0.95915 1.00028
 O228 O 0.52406 0.95938 1.00031
 O229 O 0.53874 1.04730 0.95027
 O230 O 0.56878 1.02200 0.97656
 C231 C 0.56333 1.03989 0.95761
 O232 O 0.46107 1.04942 1.04835
 O233 O 0.43096 1.02319 1.02317
 C234 C 0.43646 1.04214 1.04101
 O235 O 0.53848 1.04703 1.05056
 O236 O 0.56866 1.02195 1.02418
 C237 C 0.56310 1.03973 1.04318
 O238 O 0.46130 1.04963 0.95239
 O239 O 0.43107 1.02323 0.97736
 C240 C 0.43668 1.04230 0.95965
 Zr241 Zr 0.49993 1.03407 0.96548
 O242 O 0.50294 1.07744 0.96569
 O243 O 0.49699 1.03411 0.92196
 Zr244 Zr 0.49978 1.03392 1.03520
 O245 O 0.50274 1.07730 1.03509
 O246 O 0.49702 1.03369 1.07872
 Zr247 Zr 0.45893 0.99933 1.00028
 Zr248 Zr 0.54071 0.99922 1.00034
 O249 O 0.52371 1.03899 1.00037
 O250 O 0.47532 1.03940 1.00032
 O251 O 0.52433 0.99924 0.96009
 O252 O 0.47593 0.99912 1.04012
 O253 O 0.47611 0.99927 0.96044
 O254 O 0.52418 0.99909 1.04053
 H255 H 0.53684 0.94350 1.00031
 H256 H 0.46343 0.99917 1.05625
 H257 H 0.53616 1.05510 1.00040
 H258 H 0.46372 0.99934 0.94424
 H259 H 0.49630 0.97892 1.08580
 H260 H 0.51276 1.02284 1.08578
 H261 H 0.48737 1.08444 1.02382
 H262 H 0.48751 1.08456 0.97691
 H263 H 0.51346 1.02462 0.91461
 H264 H 0.50203 0.97969 0.91495
 H265 H 0.48648 0.91441 0.97848
 H266 H 0.50141 0.91351 1.04924
 O267 O -0.04917 0.53852 0.04934
 O268 O -0.02346 0.56860 0.02345
 C269 C -0.04168 0.56309 0.04214
 O270 O 0.05028 0.46105 0.04705
 O271 O 0.02341 0.43100 0.02241
 C272 C 0.04273 0.43648 0.03992
 O273 O 0.04764 0.53826 0.04999
 O274 O 0.02251 0.56846 0.02363
 C275 C 0.04035 0.56285 0.04262
 O276 O -0.05138 0.46137 0.04706
 O277 O -0.02408 0.43124 0.02296
 C278 C -0.04361 0.43680 0.04024
 Zr279 Zr -0.03529 0.49985 0.03457
 O280 O -0.03308 0.49760 0.07809
 O281 O -0.07881 0.49941 0.03709
 Zr282 Zr 0.03402 0.49971 0.03494
 O283 O 0.02928 0.49859 0.07818
 O284 O 0.07734 0.50040 0.03906
 O285 O -0.00061 0.52442 0.03999
 O286 O -0.00063 0.47569 0.03966
 O287 O -0.05074 0.46136 -0.04813
 O288 O -0.02428 0.43116 -0.02314
 C289 C -0.04341 0.43675 -0.04084
 O290 O 0.04807 0.53845 -0.05023
 O291 O 0.02272 0.56853 -0.02405
 C292 C 0.04072 0.56302 -0.04292
 O293 O 0.05004 0.46122 -0.04805
 O294 O 0.02342 0.43116 -0.02313
 C295 C 0.04255 0.43668 -0.04085
 O296 O -0.04793 0.53860 -0.05090
 O297 O -0.02299 0.56863 -0.02433
 C298 C -0.04063 0.56314 -0.04351
 Zr299 Zr -0.03505 0.49995 -0.03523
 O300 O -0.03480 0.49695 -0.07872
 O301 O -0.07853 0.50257 -0.03506
 Zr302 Zr 0.03466 0.49986 -0.03487
 O303 O 0.03471 0.49702 -0.07838
 O304 O 0.07816 0.50235 -0.03447
 Zr305 Zr -0.00035 0.54068 -0.00027
 Zr306 Zr -0.00045 0.45907 -0.00031
 O307 O -0.00021 0.47610 -0.04014
 O308 O -0.00014 0.52437 -0.04047
 O309 O -0.04059 0.47554 -0.00037
 O310 O 0.03944 0.52358 0.00005
 O311 O -0.04018 0.52378 -0.00041
 O312 O 0.03974 0.47543 0.00001
 H313 H -0.00062 0.46305 0.05567
 H314 H 0.05558 0.53599 0.00006
 H315 H -0.00021 0.46367 -0.05629
 H316 H -0.05609 0.53650 -0.00074
 H317 H 0.08497 0.50414 0.02059
 H318 H 0.08505 0.48678 -0.02329
 H319 H 0.02374 0.51258 -0.08554
 H320 H -0.02316 0.51204 -0.08581
 H321 H -0.08529 0.48892 -0.02154
 H322 H -0.08613 0.51099 0.02207
 H323 H -0.02236 0.51361 0.08458
 H324 H 0.04816 0.49800 0.08585
 O325 O 0.95272 0.05116 0.46098
 O326 O 0.97774 0.02465 0.43083
 C327 C 0.95996 0.04369 0.43636
 O328 O 1.05151 0.04795 0.53833
 O329 O 1.02442 0.02370 0.56860
 C330 C 1.04387 0.04099 0.56299
 O331 O 1.04902 0.05069 0.46092
 O332 O 1.02367 0.02456 0.43084
 C333 C 1.04171 0.04333 0.43629
 O334 O 0.94971 0.04824 0.53848
 O335 O 0.97649 0.02358 0.56869
 C336 C 0.95711 0.04100 0.56315
 Zr337 Zr 0.96586 0.03588 0.49976
 O338 O 0.96745 0.07926 0.50252
 O339 O 0.92244 0.03724 0.49691
 Zr340 Zr 1.03517 0.03587 0.49969
 O341 O 1.03058 0.07901 0.50062
 O342 O 1.07850 0.03979 0.49883
 O343 O 1.00057 0.04104 0.47501
 O344 O 1.00054 0.04082 0.52388
 O345 O 0.95044 -0.04692 0.53859
 O346 O 0.97675 -0.02181 0.56871
 C347 C 0.95777 -0.03960 0.56319
 O348 O 1.04840 -0.04944 0.46117
 O349 O 1.02341 -0.02304 0.43092
 C350 C 1.04110 -0.04212 0.43653
 O351 O 1.05083 -0.04684 0.53864
 O352 O 1.02444 -0.02172 0.56875
 C353 C 1.04351 -0.03947 0.56326
 O354 O 0.95253 -0.04918 0.46115
 O355 O 0.97740 -0.02265 0.43095
 C356 C 0.95968 -0.04170 0.43651
 Zr357 Zr 0.96572 -0.03373 0.49982
 O358 O 0.96580 -0.07710 0.50289
 O359 O 0.92223 -0.03338 0.49668
 Zr360 Zr 1.03539 -0.03383 0.49984
 O361 O 1.03524 -0.07720 0.50300
 O362 O 1.07889 -0.03376 0.49714
 Zr363 Zr 1.00063 0.00088 0.45884
 Zr364 Zr 1.00054 0.00098 0.54065
 O365 O 1.00055 -0.03878 0.52372
 O366 O 1.00057 -0.03920 0.47529
 O367 O 0.96035 0.00105 0.52426
 O368 O 1.04041 0.00095 0.47591
 O369 O 0.96079 0.00107 0.47595
 O370 O 1.04072 0.00103 0.52415
 H371 H 1.00050 0.05673 0.53660
 H372 H 1.05655 0.00080 0.46342
 H373 H 1.00059 -0.05485 0.53625
 H374 H 0.94460 0.00113 0.46355
 H375 H 1.08604 0.02123 0.49568
 H376 H 1.08592 -0.02265 0.51268
 H377 H 1.02380 -0.08432 0.48777
 H378 H 0.97688 -0.08425 0.48738
 H379 H 0.91486 -0.02399 0.51317
 H380 H 0.91526 0.02284 0.50936
 H381 H 0.97894 0.08593 0.48705
 H382 H 1.04949 0.08658 0.50099
 C383 C 1.12454 0.12340 0.27731
 C384 C 1.11459 0.11343 0.29779
 C385 C 1.10258 0.10157 0.32220
 C386 C 1.09561 0.07366 0.32272
 C387 C 1.08358 0.06221 0.34626
 C388 C 1.07849 0.07859 0.36943
 C389 C 1.08555 0.10649 0.36896
 C390 C 1.09758 0.11795 0.34540
 C391 C 1.06574 0.06676 0.39348
 C392 C 1.05488 0.05640 0.41328
 H393 H 1.09937 0.06079 0.30491
 H394 H 1.07819 0.04062 0.34637
 H395 H 1.08168 0.11936 0.38674
 H396 H 1.10288 0.13955 0.34524
 C397 C 0.87735 -0.12301 0.27844
 C398 C 0.88752 -0.11321 0.29883
 C399 C 0.89980 -0.10158 0.32314
 C400 C 0.88312 -0.09134 0.34435
 C401 C 0.89512 -0.07981 0.36783
 C402 C 0.92383 -0.07850 0.37020
 C403 C 0.94050 -0.08886 0.34905
 C404 C 0.92850 -0.10038 0.32558
 C405 C 0.93623 -0.06598 0.39400
 C406 C 0.94681 -0.05515 0.41362
 H407 H 0.86089 -0.09216 0.34268
 H408 H 0.88205 -0.07180 0.38404
 H409 H 0.96272 -0.08789 0.35063
 H410 H 0.94158 -0.10823 0.30930
 C411 C 0.87522 0.12192 0.72196
 C412 C 0.88473 0.11160 0.70147
 C413 C 0.89604 0.09927 0.67698
 C414 C 0.90210 0.07113 0.67649
 C415 C 0.91356 0.05926 0.65288
 C416 C 0.91897 0.07545 0.62961
 C417 C 0.91268 0.10354 0.63002
 C418 C 0.90122 0.11542 0.65363
 C419 C 0.93183 0.06343 0.60575
 C420 C 0.94309 0.05329 0.58607
 H421 H 0.89816 0.05844 0.69440
 H422 H 0.91846 0.03754 0.65286
 H423 H 0.91690 0.11628 0.61221
 H424 H 0.89660 0.13719 0.65375
 C425 C 1.12589 -0.12118 0.72144
 C426 C 1.11637 -0.11099 0.70089
 C427 C 1.10474 -0.09892 0.67643
 C428 C 1.08629 -0.11401 0.66026
 C429 C 1.07448 -0.10214 0.63683
 C430 C 1.08108 -0.07511 0.62942
 C431 C 1.09966 -0.06006 0.64549
 C432 C 1.11148 -0.07194 0.66893
 C433 C 1.06828 -0.06264 0.60575
 C434 C 1.05720 -0.05213 0.58618
 H435 H 1.08092 -0.13487 0.66587
 H436 H 1.06007 -0.11395 0.62462
 H437 H 1.10484 -0.03912 0.64000
 H438 H 1.12571 -0.06006 0.68127
 C439 C 0.27805 1.12305 1.12365
 C440 C 0.29858 1.11331 1.11362
 C441 C 0.32303 1.10178 1.10145
 C442 C 0.33732 1.08069 1.11494
 C443 C 0.36085 1.06923 1.10290
 C444 C 0.37021 1.07882 1.07734
 C445 C 0.35600 1.10001 1.06391
 C446 C 0.33248 1.11148 1.07595
 C447 C 0.39395 1.06644 1.06461
 C448 C 0.41355 1.05563 1.05387
 H449 H 0.33022 1.07304 1.13466
 H450 H 0.37162 1.05280 1.11343
 H451 H 0.36300 1.10753 1.04410
 H452 H 0.32160 1.12778 1.06535
 C453 C 0.27825 0.87540 0.87747
 C454 C 0.29877 0.88510 0.88748
 C455 C 0.32319 0.89670 0.89957
 C456 C 0.34040 0.91373 0.88390
 C457 C 0.36391 0.92530 0.89580
 C458 C 0.37032 0.91987 0.92341
 C459 C 0.35320 0.90272 0.93903
 C460 C 0.32970 0.89115 0.92714
 C461 C 0.39407 0.93241 0.93588
 C462 C 0.41367 0.94328 0.94648
 H463 H 0.33560 0.91814 0.86256
 H464 H 0.37697 0.93857 0.88355
 H465 H 0.35792 0.89843 0.96042
 H466 H 0.31656 0.87800 0.93943
 C467 C 0.72212 0.87788 1.12502
 C468 C 0.70157 0.88802 1.11545
 C469 C 0.67702 0.90000 1.10391
 C470 C 0.66603 0.92418 1.11507
 C471 C 0.64239 0.93597 1.10356
 C472 C 0.62963 0.92361 1.08086
 C473 C 0.64056 0.89936 1.06980
 C474 C 0.66418 0.88758 1.08130
 C475 C 0.60576 0.93608 1.06846
 C476 C 0.58608 0.94657 1.05754
 H477 H 0.67581 0.93399 1.13252
 H478 H 0.63420 0.95480 1.11220
 H479 H 0.63095 0.88969 1.05217
 H480 H 0.67252 0.86891 1.07248
 C481 C 0.72175 1.12236 0.87674
 C482 C 0.70138 1.11213 0.88657
 C483 C 0.67709 1.09997 0.89840
 C484 C 0.65647 1.08928 0.88133
 C485 C 0.63295 1.07733 0.89291
 C486 C 0.62996 1.07607 0.92159
 C487 C 0.65057 1.08681 0.93863
 C488 C 0.67407 1.09875 0.92706
 C489 C 0.60603 1.06343 0.93365
 C490 C 0.58630 1.05274 0.94425
 H491 H 0.65860 1.09008 0.85913
 H492 H 0.61718 1.06902 0.87954
 H493 H 0.64852 1.08588 0.96083
 H494 H 0.68989 1.10692 0.94045
 C495 C 0.12442 0.27878 0.12259
 C496 C 0.11457 0.29913 0.11240
 C497 C 0.10264 0.32328 0.10009
 C498 C 0.07475 0.32343 0.09278
 C499 C 0.06311 0.34676 0.08066
 C500 C 0.07930 0.37006 0.07576
 C501 C 0.10720 0.36994 0.08306
 C502 C 0.11885 0.34658 0.09520
 C503 C 0.06715 0.39395 0.06319
 C504 C 0.05637 0.41360 0.05259
 H505 H 0.06203 0.30551 0.09640
 H506 H 0.04152 0.34662 0.07507
 H507 H 0.11991 0.38784 0.07933
 H508 H 0.14046 0.34667 0.10070
 C509 C -0.12532 0.27881 -0.12251
 C510 C -0.11577 0.29931 -0.11236
 C511 C -0.10430 0.32367 -0.10003
 C512 C -0.09763 0.34641 -0.11644
 C513 C -0.08603 0.36985 -0.10449
 C514 C -0.08107 0.37066 -0.07607
 C515 C -0.08792 0.34800 -0.05964
 C516 C -0.09952 0.32457 -0.07158
 C517 C -0.06831 0.39439 -0.06385
 C518 C -0.05720 0.41394 -0.05345
 H519 H -0.10126 0.34599 -0.13845
 H520 H -0.08077 0.38724 -0.11739
 H521 H -0.08414 0.34838 -0.03765
 H522 H -0.10462 0.30714 -0.05867
 C523 C 0.12297 0.72121 -0.12404
 C524 C 0.11301 0.70073 -0.11424
 C525 C 0.10112 0.67637 -0.10232
 C526 C 0.10034 0.67320 -0.07364
 C527 C 0.08848 0.64974 -0.06199
 C528 C 0.07735 0.62931 -0.07895
 C529 C 0.07823 0.63240 -0.10764
 C530 C 0.09010 0.65588 -0.11930
 C531 C 0.06460 0.60551 -0.06683
 C532 C 0.05377 0.58588 -0.05623
 H533 H 0.10880 0.68889 -0.06030
 H534 H 0.08785 0.64760 -0.03978
 H535 H 0.06962 0.61676 -0.12094
 H536 H 0.09058 0.65810 -0.14150
 C537 C -0.12461 0.72104 0.12306
 C538 C -0.11476 0.70052 0.11322
 C539 C -0.10283 0.67614 0.10137
 C540 C -0.08986 0.65667 0.11826
 C541 C -0.07783 0.63326 0.10664
 C542 C -0.07872 0.62921 0.07808
 C543 C -0.09184 0.64858 0.06123
 C544 C -0.10387 0.67198 0.07284
 C545 C -0.06582 0.60549 0.06595
 C546 C -0.05488 0.58593 0.05535
 H547 H -0.08893 0.65966 0.14035
 H548 H -0.06772 0.61842 0.11986
 H549 H -0.09264 0.64567 0.03912
 H550 H -0.11383 0.68688 0.05958
 C551 C 1.12424 0.12364 0.72108
 C552 C 1.11449 0.11348 0.70070
 C553 C 1.10283 0.10107 0.67652
 C554 C 1.08173 0.08168 0.67920
 C555 C 1.07044 0.06944 0.65577
 C556 C 1.08021 0.07654 0.62956
 C557 C 1.10134 0.09592 0.62686
 C558 C 1.11264 0.10817 0.65031
 C559 C 1.06819 0.06414 0.60556
 C560 C 1.05749 0.05363 0.58585
 H561 H 1.07402 0.07603 0.69937
 H562 H 1.05408 0.05450 0.65809
 H563 H 1.10900 0.10158 0.60668
 H564 H 1.12898 0.12313 0.64803
 C565 C 0.87727 -0.12276 0.72106
 C566 C 0.88687 -0.11261 0.70058
 C567 C 0.89825 -0.10028 0.67621
 C568 C 0.89122 -0.07327 0.66913
 C569 C 0.90264 -0.06110 0.64568
 C570 C 0.92109 -0.07594 0.62922
 C571 C 0.92799 -0.10300 0.63621
 C572 C 0.91657 -0.11516 0.65967
 C573 C 0.93348 -0.06319 0.60558
 C574 C 0.94431 -0.05245 0.58604
 H575 H 0.87702 -0.06161 0.68178
 H576 H 0.89722 -0.04014 0.64046
 H577 H 0.94229 -0.11461 0.62364
 H578 H 0.92210 -0.13608 0.66496
 C579 C 1.12194 -0.12456 0.27847
 C580 C 1.11199 -0.11479 0.29897
 C581 C 1.10020 -0.10292 0.32337
 C582 C 1.10835 -0.07667 0.33186
 C583 C 1.09665 -0.06488 0.35534
 C584 C 1.07677 -0.07930 0.37043
 C585 C 1.06869 -0.10560 0.36203
 C586 C 1.08041 -0.11740 0.33853
 C587 C 1.06429 -0.06677 0.39414
 C588 C 1.05376 -0.05580 0.41371
 H589 H 1.12363 -0.06530 0.32026
 H590 H 1.10296 -0.04450 0.36163
 H591 H 1.05326 -0.11687 0.37353
 H592 H 1.07395 -0.13770 0.33212
 C593 C 0.87752 0.12558 0.27874
 C594 C 0.88768 0.11578 0.29912
 C595 C 0.89983 0.10372 0.32326
 C596 C 0.90499 0.11984 0.34658
 C597 C 0.91696 0.10801 0.36995
 C598 C 0.92377 0.08005 0.37005
 C599 C 0.91852 0.06394 0.34676
 C600 C 0.90657 0.07575 0.32341
 C601 C 0.93635 0.06781 0.39387
 C602 C 0.94706 0.05708 0.41349
 H603 H 0.89980 0.14149 0.34668
 H604 H 0.92091 0.12062 0.38789
 H605 H 0.92368 0.04228 0.34665
 H606 H 0.90260 0.06311 0.30550
 C607 C 0.12277 0.27910 -0.12435
 C608 C 0.11287 0.29948 -0.11436
 C609 C 0.10107 0.32365 -0.10212
 C610 C 0.11635 0.34800 -0.10064
 C611 C 0.10497 0.37134 -0.08829
 C612 C 0.07827 0.37037 -0.07740
 C613 C 0.06299 0.34603 -0.07894
 C614 C 0.07437 0.32272 -0.09127
 C615 C 0.06642 0.39422 -0.06461
 C616 C 0.05589 0.41385 -0.05380
 H617 H 0.13705 0.34890 -0.10892
 H618 H 0.11695 0.39006 -0.08717
 H619 H 0.04234 0.34508 -0.07055
 H620 H 0.06240 0.30398 -0.09227
 C621 C -0.12512 0.27921 0.12246
 C622 C -0.11548 0.29977 0.11259
 C623 C -0.10383 0.32417 0.10066
 C624 C -0.07896 0.33463 0.11077
 C625 C -0.06730 0.35800 0.09877
 C626 C -0.08049 0.37101 0.07666
 C627 C -0.10542 0.36063 0.06663
 C628 C -0.11709 0.33726 0.07864
 C629 C -0.06805 0.39458 0.06389
 C630 C -0.05718 0.41404 0.05311
 H631 H -0.06855 0.32467 0.12779
 H632 H -0.04795 0.36581 0.10659
 H633 H -0.11573 0.37048 0.04948
 H634 H -0.13634 0.32932 0.07069
 C635 C -0.12209 0.72130 -0.12490
 C636 C -0.11205 0.70085 -0.11519
 C637 C -0.10008 0.67656 -0.10335
 C638 C -0.10012 0.67301 -0.07472
 C639 C -0.08831 0.64953 -0.06309
 C640 C -0.07643 0.62949 -0.08005
 C641 C -0.07645 0.63298 -0.10869
 C642 C -0.08827 0.65649 -0.12033
 C643 C -0.06391 0.60563 -0.06788
 C644 C -0.05333 0.58599 -0.05709
 H645 H -0.10922 0.68840 -0.06141
 H646 H -0.08838 0.64703 -0.04092
 H647 H -0.06729 0.61761 -0.12198
 H648 H -0.08816 0.65904 -0.14250
 C649 C 0.12190 0.72050 0.12402
 C650 C 0.11191 0.70011 0.11423
 C651 C 0.10003 0.67588 0.10231
 C652 C 0.09911 0.67297 0.07363
 C653 C 0.08735 0.64955 0.06195
 C654 C 0.07647 0.62895 0.07890
 C655 C 0.07748 0.63178 0.10759
 C656 C 0.08925 0.65522 0.11928
 C657 C 0.06392 0.60518 0.06673
 C658 C 0.05325 0.58561 0.05603
 H659 H 0.10740 0.68883 0.06034
 H660 H 0.08663 0.64757 0.03973
 H661 H 0.06908 0.61596 0.12086
 H662 H 0.08987 0.65728 0.14149
 C663 C 0.27887 1.12427 0.87799
 C664 C 0.29937 1.11470 0.88812
 C665 C 0.32375 1.10321 0.90032
 C666 C 0.32651 1.10245 0.92903
 C667 C 0.34998 1.09082 0.94093
 C668 C 0.37077 1.07995 0.92417
 C669 C 0.36812 1.08090 0.89546
 C670 C 0.34464 1.09253 0.88355
 C671 C 0.39441 1.06715 0.93648
 C672 C 0.41391 1.05603 0.94697
 H673 H 0.31047 1.11067 0.94218
 H674 H 0.35182 1.09012 0.96316
 H675 H 0.38407 1.07248 0.88233
 H676 H 0.34271 1.09305 0.86132
 C677 C 0.27836 0.87498 1.12272
 C678 C 0.29880 0.88466 1.11256
 C679 C 0.32306 0.89630 1.10024
 C680 C 0.34794 0.89672 1.11483
 C681 C 0.37142 0.90835 1.10290
 C682 C 0.37008 0.91957 1.07635
 C683 C 0.34524 0.91902 1.06173
 C684 C 0.32178 0.90741 1.07365
 C685 C 0.39396 0.93215 1.06425
 C686 C 0.41362 0.94309 1.05385
 H687 H 0.34915 0.88818 1.13540
 H688 H 0.39054 0.90871 1.11438
 H689 H 0.34399 0.92768 1.04120
 H690 H 0.30265 0.90718 1.06220
 C691 C 0.72097 1.12215 1.12403
 C692 C 0.70053 1.11207 1.11433
 C693 C 0.67622 1.10004 1.10259
 C694 C 0.67017 1.10419 1.07469
 C695 C 0.64676 1.09222 1.06311
 C696 C 0.62928 1.07607 1.07938
 C697 C 0.63526 1.07198 1.10731
 C698 C 0.65869 1.08396 1.11891
 C699 C 0.60554 1.06335 1.06722
 C700 C 0.58594 1.05261 1.05656
 H701 H 0.68361 1.11655 1.06190
 H702 H 0.64236 1.09542 1.04147
 H703 H 0.62191 1.05945 1.12004
 H704 H 0.66321 1.08060 1.14050
 C705 C 0.72135 0.87669 0.87625
 C706 C 0.70098 0.88697 0.88596
 C707 C 0.67681 0.89949 0.89761
 C708 C 0.67843 0.91277 0.92313
 C709 C 0.65501 0.92502 0.93450
 C710 C 0.62989 0.92405 0.92040
 C711 C 0.62825 0.91085 0.89484
 C712 C 0.65169 0.89859 0.88345
 C713 C 0.60585 0.93642 0.93243
 C714 C 0.58610 0.94686 0.94317
 H715 H 0.69776 0.91366 0.93421
 H716 H 0.65648 0.93519 0.95428
 H717 H 0.60891 0.91000 0.88379
 H718 H 0.65024 0.88842 0.86366
   
