data_POSCAR
  _audit_creation_date              2014-09-24
  _audit_creation_method            'ToBaCCo'
  _symmetry_space_group_name_H-M    'P1'
  _symmetry_Int_Tables_number       1
  _symmetry_cell_setting            triclinic
  loop_
  _symmetry_equiv_pos_as_xyz
 x,y,z
_cell_length_a 16.6465
_cell_length_b 15.9288
_cell_length_c 16.6274
_cell_angle_alpha 91.069300
_cell_angle_beta 91.667300
_cell_angle_gamma 90.836400
loop_
  _atom_site_label
  _atom_site_type_symbol
  _atom_site_fract_x
  _atom_site_fract_y
  _atom_site_fract_z
O1 O 0.57369 0.16047 0.07843
 O2 O 0.42474 -0.05657 -0.15677
 O3 O 0.66475 -0.03024 -0.07734
 O4 O 0.33513 0.09619 0.03171
 O5 O 0.56226 -0.02200 -0.15337
 O6 O 0.44206 0.16738 0.03385
 O7 O 0.35933 0.04373 -0.10210
 O8 O 0.63427 0.10907 -0.02310
 C9 C 0.61648 0.17105 0.01867
 C10 C 0.37591 0.00270 -0.16293
 C11 C 0.63598 -0.01934 -0.14547
 C12 C 0.36982 0.16371 0.01849
 O13 O 0.39737 0.05187 0.14960
 O14 O 0.59117 -0.15210 -0.04866
 O15 O 0.64354 0.04432 0.12226
 O16 O 0.34612 -0.11146 -0.05340
 O17 O 0.45502 -0.17298 -0.03496
 O18 O 0.53240 0.02627 0.17600
 O19 O 0.35328 -0.05958 0.08746
 O20 O 0.63654 -0.09753 0.06318
 Co21 Co 0.48724 0.09227 0.10018
 Co22 Co 0.50694 -0.09177 -0.08921
 Co23 Co 0.62896 0.00589 0.01967
 Co24 Co 0.36347 -0.00723 -0.00703
 O25 O 0.49669 -0.00026 0.00573
 C26 C 0.36065 -0.01733 0.15049
 C27 C 0.62824 -0.15978 0.01735
 C28 C 0.60589 0.02438 0.18195
 C29 C 0.38152 -0.17667 -0.03653
 O30 O -0.17572 0.47045 -0.03845
 O31 O 0.02872 0.52746 0.16046
 O32 O -0.04515 0.35510 0.08182
 O33 O -0.09226 0.65006 0.03682
 O34 O 0.07144 0.38621 0.12509
 O35 O -0.14038 0.61300 -0.07647
 O36 O 0.03211 0.64833 0.10673
 O37 O -0.11947 0.35071 -0.04253
 C38 C -0.18005 0.39362 -0.02930
 C39 C 0.01618 0.60374 0.16565
 C40 C 0.00499 0.35441 0.13800
 C41 C -0.15148 0.64313 -0.00855
 O42 O -0.03226 0.55229 -0.17660
 O43 O 0.16298 0.45057 0.01039
 O44 O 0.02048 0.36113 -0.12548
 O45 O 0.10954 0.64043 -0.03667
 O46 O 0.15049 0.58516 0.07137
 O47 O -0.08957 0.41472 -0.16248
 O48 O -0.01242 0.66646 -0.10850
 O49 O 0.09444 0.33693 -0.00432
 Co50 Co -0.09902 0.51146 -0.10315
 Co51 Co 0.09216 0.48879 0.08129
 Co52 Co -0.01141 0.36508 -0.02134
 Co53 Co 0.00793 0.63736 -0.00164
 O54 O -0.00248 0.50069 -0.01162
 C55 C -0.00956 0.62662 -0.17449
 C56 C 0.15980 0.37581 -0.00963
 C57 C -0.02910 0.37456 -0.18038
 C58 C 0.16572 0.62596 0.01070
 O59 O -0.08646 -0.16264 0.42673
 O60 O 0.15055 0.00400 0.56710
 O61 O 0.09275 0.00877 0.32768
 O62 O 0.04514 -0.09978 0.63279
 O63 O 0.16157 -0.00595 0.43406
 O64 O -0.05120 -0.16377 0.56892
 O65 O 0.09181 0.04591 0.66878
 O66 O 0.01354 -0.12341 0.35193
 C67 C -0.03408 -0.17903 0.37458
 C68 C 0.15664 0.02702 0.63792
 C69 C 0.15676 -0.01172 0.36069
 C70 C 0.00690 -0.16587 0.61757
 O71 O -0.13261 -0.01673 0.59172
 O72 O 0.07475 0.14232 0.40921
 O73 O -0.11740 -0.03812 0.34479
 O74 O -0.04159 0.10640 0.61231
 O75 O 0.06740 0.15315 0.55863
 O76 O -0.16896 -0.01573 0.45792
 O77 O -0.06253 -0.01534 0.70323
 O78 O -0.03515 0.09453 0.34605
 Co79 Co -0.10055 -0.08353 0.50996
 Co80 Co 0.10539 0.06811 0.49221
 Co81 Co -0.01002 -0.01406 0.35717
 Co82 Co -0.00031 0.00154 0.61556
 O83 O 0.00295 -0.00675 0.48968
 C84 C -0.13247 -0.02598 0.66670
 C85 C 0.01347 0.15329 0.36233
 C86 C -0.17634 -0.01799 0.38455
 C87 C 0.00483 0.16613 0.59817
 N88 N -0.31905 0.38625 0.02312
 N89 N -0.37327 0.32668 0.03540
 C90 C -0.34600 0.25325 0.00610
 C91 C -0.27133 0.26619 -0.02554
 C92 C -0.25612 0.35105 -0.01290
 H93 H -0.23145 0.21952 -0.04962
 H94 H -0.32371 0.44867 0.04250
 H95 H -0.42668 0.33584 0.06563
 N96 N 0.30889 0.63096 0.03763
 N97 N 0.37186 0.68587 0.02075
 C98 C 0.34017 0.74959 -0.02110
 C99 C 0.25876 0.73491 -0.03626
 C100 C 0.24163 0.66066 0.00201
 H101 H 0.21643 0.77615 -0.06571
 H102 H 0.31403 0.57763 0.07293
 H103 H 0.43053 0.68173 0.04423
 N104 N 0.30615 0.36926 -0.03048
 N105 N 0.36251 0.31257 -0.02115
 C106 C 0.32681 0.23797 -0.00758
 C107 C 0.24448 0.24660 -0.01023
 C108 C 0.23400 0.33115 -0.02350
 H109 H 0.19936 0.20031 0.00483
 H110 H 0.31734 0.43355 -0.03612
 H111 H 0.42416 0.32599 -0.01947
 N112 N -0.29979 0.63569 -0.01031
 N113 N -0.35955 0.68769 0.00078
 C114 C -0.32991 0.76121 0.03115
 C115 C -0.24706 0.75473 0.04166
 C116 C -0.23056 0.67445 0.01324
 H117 H -0.20412 0.80534 0.05412
 H118 H -0.30590 0.57738 -0.03977
 H119 H -0.41847 0.67602 -0.02033
 N120 N -0.06074 -0.33468 0.35740
 N121 N -0.04571 -0.39296 0.30200
 C122 C -0.00769 -0.35601 0.24111
 C123 C 0.00255 -0.27181 0.25853
 C124 C -0.03145 -0.26057 0.33248
 H125 H 0.03026 -0.22467 0.22178
 H126 H -0.09005 -0.34577 0.41095
 H127 H -0.06245 -0.45621 0.30539
 N128 N -0.06533 0.30117 0.61674
 N129 N -0.07483 0.35562 0.67657
 C130 C -0.02404 0.33689 0.73816
 C131 C 0.02063 0.26797 0.71591
 C132 C -0.00754 0.24732 0.63841
 H133 H 0.06104 0.23223 0.75374
 H134 H -0.10135 0.29792 0.56424
 H135 H -0.11881 0.40173 0.67681
 N136 N -0.07933 0.25957 0.31041
 N137 N -0.08388 0.30796 0.24684
 C138 C -0.01085 0.31353 0.21498
 C139 C 0.04312 0.26721 0.26135
 C140 C -0.00322 0.23276 0.32120
 H141 H 0.10409 0.25141 0.24676
 H142 H -0.12931 0.23905 0.34163
 H143 H -0.13708 0.33309 0.22350
 N144 N 0.00545 -0.31632 0.62102
 N145 N -0.00054 -0.37546 0.68118
 C146 C 0.00966 -0.33518 0.75288
 C147 C 0.02807 -0.25057 0.73979
 C148 C 0.02299 -0.24116 0.65613
 H149 H 0.03158 -0.20063 0.78489
 H150 H -0.01035 -0.32780 0.56049
 H151 H -0.01950 -0.43769 0.67111
 N152 N 0.29522 -0.01058 0.63884
 N153 N 0.35810 -0.01817 0.69474
 C154 C 0.33345 0.01348 0.76507
 C155 C 0.25440 0.04183 0.75626
 C156 C 0.23205 0.02283 0.67661
 H157 H 0.21610 0.06473 0.80315
 H158 H 0.29635 -0.03370 0.57966
 H159 H 0.41232 -0.04795 0.68377
 N160 N -0.32477 -0.00113 0.38465
 N161 N -0.38361 0.00771 0.33051
 C162 C -0.35119 0.00873 0.25734
 C163 C -0.26911 -0.00012 0.26458
 C164 C -0.25484 -0.00594 0.34599
 H165 H -0.22573 -0.00087 0.21729
 H166 H -0.33265 -0.00381 0.44664
 H167 H -0.44412 0.01462 0.34380
 N168 N 0.29993 -0.05064 0.35008
 N169 N 0.35427 -0.05367 0.29387
 C170 C 0.31765 -0.04069 0.22212
 C171 C 0.23647 -0.02795 0.23294
 C172 C 0.22793 -0.03406 0.31521
 H173 H 0.19213 -0.00781 0.18875
 H174 H 0.31311 -0.05467 0.41169
 H175 H 0.41598 -0.05939 0.30520
 N176 N -0.28003 -0.01863 0.66058
 N177 N -0.34110 -0.01418 0.70892
 C178 C -0.31241 -0.01580 0.78509
 C179 C -0.22882 -0.02148 0.78568
 C180 C -0.21098 -0.02331 0.70488
 H181 H -0.18766 -0.02499 0.83706
 H182 H -0.28599 -0.01829 0.59788
 H183 H -0.40130 -0.01149 0.68967
   
