data_POSCAR
  _audit_creation_date              2014-09-24
  _audit_creation_method            'ToBaCCo'
  _symmetry_space_group_name_H-M    'P1'
  _symmetry_Int_Tables_number       1
  _symmetry_cell_setting            triclinic
  loop_
  _symmetry_equiv_pos_as_xyz
 x,y,z
_cell_length_a 27.4014
_cell_length_b 26.5146
_cell_length_c 28.4470
_cell_angle_alpha 90.026400
_cell_angle_beta 89.999600
_cell_angle_gamma 89.485100
loop_
  _atom_site_label
  _atom_site_type_symbol
  _atom_site_fract_x
  _atom_site_fract_y
  _atom_site_fract_z
C1 C 0.20522 0.14059 0.21801
 C2 C 0.18584 0.12294 0.26086
 C3 C 0.14376 0.14618 0.28108
 C4 C 0.12250 0.18766 0.25803
 C5 C 0.14117 0.20520 0.21556
 C6 C 0.18213 0.18131 0.19514
 C7 C 0.24767 0.11904 0.19782
 C8 C 0.26707 0.13789 0.15514
 C9 C 0.24150 0.17660 0.13183
 C10 C 0.20013 0.19863 0.15182
 C11 C 0.17756 0.23926 0.12946
 C12 C 0.13919 0.26538 0.15143
 C13 C 0.12005 0.24726 0.19368
 H14 H 0.20414 0.09163 0.27778
 H15 H 0.09079 0.20647 0.27309
 H16 H 0.26619 0.08836 0.21589
 H17 H 0.25324 0.19061 0.09809
 H18 H 0.19099 0.25100 0.09546
 H19 H 0.08970 0.26692 0.21023
 C20 C -0.22941 0.85081 0.20802
 C21 C -0.21220 0.87522 0.24837
 C22 C -0.16857 0.85990 0.27025
 C23 C -0.14151 0.81929 0.24960
 C24 C -0.15834 0.79465 0.20877
 C25 C -0.20247 0.81076 0.18811
 C26 C -0.27372 0.86569 0.18757
 C27 C -0.29170 0.84074 0.14722
 C28 C -0.26388 0.80196 0.12717
 C29 C -0.21998 0.78664 0.14745
 C30 C -0.19398 0.74680 0.12759
 C31 C -0.15050 0.72947 0.14762
 C32 C -0.13235 0.75373 0.18840
 H33 H -0.23353 0.90597 0.26330
 H34 H -0.10748 0.80608 0.26434
 H35 H -0.29295 0.89715 0.20327
 H36 H -0.27689 0.78279 0.09590
 H37 H -0.20822 0.72858 0.09634
 H38 H -0.09880 0.74094 0.20467
 C39 C -0.21353 0.14941 -0.20931
 C40 C -0.19811 0.12546 -0.25125
 C41 C -0.15689 0.14212 -0.27657
 C42 C -0.13096 0.18402 -0.25841
 C43 C -0.14580 0.20849 -0.21644
 C44 C -0.18728 0.19106 -0.19205
 C45 C -0.25499 0.13236 -0.18450
 C46 C -0.27103 0.15650 -0.14245
 C47 C -0.24423 0.19824 -0.12637
 C48 C -0.20274 0.21553 -0.15049
 C49 C -0.17676 0.25725 -0.13342
 C50 C -0.13477 0.27511 -0.15672
 C51 C -0.11993 0.25033 -0.19849
 H52 H -0.21848 0.09355 -0.26441
 H53 H -0.09935 0.19832 -0.27654
 H54 H -0.27425 0.10055 -0.19886
 H55 H -0.25563 0.21751 -0.09449
 H56 H -0.19031 0.27573 -0.10216
 H57 H -0.08807 0.26372 -0.21713
 C58 C 0.20078 0.87104 -0.21486
 C59 C 0.18283 0.88863 -0.25792
 C60 C 0.14106 0.86722 -0.27807
 C61 C 0.11511 0.83072 -0.25260
 C62 C 0.13297 0.81247 -0.21011
 C63 C 0.17638 0.83198 -0.19123
 C64 C 0.24371 0.89071 -0.19607
 C65 C 0.26350 0.87133 -0.15437
 C66 C 0.23891 0.83202 -0.13070
 C67 C 0.19560 0.81193 -0.14924
 C68 C 0.17174 0.77123 -0.12753
 C69 C 0.12891 0.75098 -0.14758
 C70 C 0.10896 0.77315 -0.18761
 H71 H 0.20261 0.91766 -0.27666
 H72 H 0.08111 0.81554 -0.26522
 H73 H 0.26245 0.92064 -0.21454
 H74 H 0.25281 0.81706 -0.09793
 H75 H 0.18676 0.75508 -0.09563
 H76 H 0.07608 0.75759 -0.20294
 C77 C 0.14633 1.20632 0.77465
 C78 C 0.12525 1.18698 0.73396
 C79 C 0.14534 1.14489 0.71120
 C80 C 0.18781 1.12184 0.73046
 C81 C 0.20947 1.14107 0.77152
 C82 C 0.18863 1.18366 0.79365
 C83 C 0.12532 1.24846 0.79612
 C84 C 0.14578 1.26967 0.83650
 C85 C 0.18836 1.24657 0.85598
 C86 C 0.20990 1.20364 0.83465
 C87 C 0.25229 1.18044 0.85344
 C88 C 0.27392 1.13771 0.83140
 C89 C 0.25170 1.11844 0.79061
 H90 H 0.09272 1.20512 0.71985
 H91 H 0.20476 1.08936 0.71415
 H92 H 0.09279 1.26530 0.78069
 H93 H 0.20526 1.26115 0.88740
 H94 H 0.26761 1.19564 0.88540
 H95 H 0.26758 1.08566 0.77343
 C96 C 0.85124 0.79665 0.78514
 C97 C 0.86606 0.81916 0.74251
 C98 C 0.84115 0.86225 0.72412
 C99 C 0.80245 0.88270 0.75012
 C100 C 0.78695 0.86026 0.79189
 C101 C 0.81103 0.81706 0.80962
 C102 C 0.87584 0.75397 0.80341
 C103 C 0.86099 0.73076 0.84582
 C104 C 0.81971 0.75166 0.86951
 C105 C 0.79467 0.79443 0.85165
 C106 C 0.75324 0.81500 0.87482
 C107 C 0.72885 0.85798 0.85635
 C108 C 0.74678 0.88041 0.81550
 H109 H 0.89732 0.80294 0.72482
 H110 H 0.78312 0.91578 0.73707
 H111 H 0.90690 0.73870 0.78433
 H112 H 0.80632 0.73534 0.90172
 H113 H 0.74052 0.79765 0.90691
 H114 H 0.72846 0.91346 0.80118
 C115 C 0.16082 0.79224 1.22217
 C116 C 0.15385 0.80026 1.26994
 C117 C 0.17079 0.84446 1.29108
 C118 C 0.19912 0.87828 1.26531
 C119 C 0.20776 0.86970 1.21757
 C120 C 0.18758 0.82700 1.19558
 C121 C 0.14112 0.74990 1.20078
 C122 C 0.14874 0.74055 1.15292
 C123 C 0.17515 0.77570 1.12593
 C124 C 0.19470 0.81869 1.14724
 C125 C 0.22324 0.85226 1.12156
 C126 C 0.24690 0.89232 1.14442
 C127 C 0.23701 0.90239 1.19173
 H128 H 0.13409 0.77258 1.29028
 H129 H 0.21291 0.91207 1.28201
 H130 H 0.12064 0.72339 1.22196
 H131 H 0.18076 0.77035 1.08864
 H132 H 0.22921 0.84551 1.08442
 H133 H 0.25478 0.93366 1.20917
 C134 C 0.84832 1.20709 1.21508
 C135 C 0.86468 1.18399 1.25707
 C136 C 0.84070 1.14108 1.27602
 C137 C 0.79971 1.12232 1.25153
 C138 C 0.78292 1.14486 1.20960
 C139 C 0.80744 1.18715 1.19145
 C140 C 0.87187 1.24996 1.19609
 C141 C 0.85458 1.27243 1.15404
 C142 C 0.81439 1.25166 1.13128
 C143 C 0.79091 1.20965 1.14941
 C144 C 0.75067 1.19038 1.12570
 C145 C 0.72540 1.14910 1.14330
 C146 C 0.74188 1.12593 1.18536
 H147 H 0.89590 1.20021 1.27434
 H148 H 0.78061 1.08978 1.26514
 H149 H 0.90312 1.26579 1.21396
 H150 H 0.80100 1.26857 1.09896
 H151 H 0.73835 1.20827 1.09344
 H152 H 0.72355 1.09309 1.19906
 N153 N 0.55695 1.07970 0.95000
 N154 N 0.59547 1.10815 0.94029
 N155 N 0.45030 1.05194 0.91451
 N156 N 0.41220 1.05919 0.88631
 N157 N 0.45400 1.08974 0.94431
 N158 N 0.41881 1.12317 0.93730
 N159 N 0.55350 1.04319 0.91886
 N160 N 0.58934 1.04530 0.88809
 C161 C 0.61551 1.08563 0.90155
 C162 C 0.39307 1.10415 0.90099
 N163 N 0.44494 0.90675 0.95364
 N164 N 0.40787 0.87600 0.94873
 N165 N 0.54857 0.93542 0.92599
 N166 N 0.58842 0.92615 0.90110
 N167 N 0.54626 0.90392 0.96157
 N168 N 0.58343 0.87196 0.96137
 N169 N 0.44483 0.94122 0.92055
 N170 N 0.40717 0.93474 0.89205
 Mn171 Mn 0.49882 0.99292 0.91919
 C172 C 0.38464 0.89369 0.91038
 C173 C 0.60957 0.88628 0.92354
 N174 N 0.44536 1.09517 1.04508
 N175 N 0.40963 1.12910 1.04745
 N176 N 0.53893 1.05322 1.08870
 N177 N 0.57193 1.05594 1.12213
 N178 N 0.54859 1.08463 1.05425
 N179 N 0.58908 1.10971 1.06371
 N180 N 0.43865 1.06035 1.07712
 N181 N 0.39945 1.06953 1.10237
 Mn182 Mn 0.50191 1.08824 0.99840
 C183 C 0.38156 1.11240 1.08364
 C184 C 0.60297 1.09105 1.10639
 N185 N 0.53730 0.91158 1.06266
 N186 N 0.57362 0.88128 1.07485
 N187 N 0.43116 0.95295 1.08085
 N188 N 0.38771 0.95328 1.10083
 N189 N 0.43570 0.91452 1.05211
 N190 N 0.39566 0.88763 1.05154
 N191 N 0.53177 0.94754 1.09381
 N192 N 0.56363 0.94310 1.12800
 Mn193 Mn 0.49160 0.90869 1.00757
 Mn194 Mn 0.48467 1.00360 1.08530
 Cl195 Cl 0.49446 0.99864 1.00230
 C196 C 0.58929 0.90180 1.11585
 C197 C 0.36628 0.91214 1.08195
 N198 N -0.03914 0.44928 -0.07321
 N199 N -0.04954 0.41122 -0.10177
 N200 N -0.07110 0.55613 -0.03784
 N201 N -0.10352 0.59315 -0.04065
 N202 N -0.04151 0.55677 -0.07430
 N203 N -0.05346 0.59466 -0.10285
 N204 N -0.06854 0.44935 -0.03659
 N205 N -0.09938 0.41144 -0.03933
 C206 C -0.08729 0.38784 -0.08004
 C207 C -0.09241 0.61708 -0.08121
 N208 N -0.02093 0.55914 0.09184
 N209 N -0.02403 0.59660 0.12215
 N210 N -0.05661 0.45146 0.06560
 N211 N -0.08573 0.41377 0.07681
 N212 N -0.01929 0.45383 0.09458
 N213 N -0.02069 0.41818 0.12693
 N214 N -0.05883 0.55843 0.06367
 N215 N -0.08896 0.59600 0.07419
 Mn216 Mn -0.06443 0.50374 0.01370
 C217 C -0.06647 0.61942 0.11075
 C218 C -0.06357 0.39076 0.11677
 N219 N 0.06510 0.55756 -0.08367
 N220 N 0.06791 0.59852 -0.11024
 N221 N 0.10350 0.45146 -0.05212
 N222 N 0.13387 0.41331 -0.05720
 N223 N 0.06736 0.44945 -0.08241
 N224 N 0.07253 0.40863 -0.10912
 N225 N 0.10262 0.55542 -0.05501
 N226 N 0.13223 0.59336 -0.06166
 Mn227 Mn 0.01289 0.50334 -0.07945
 C228 C 0.11039 0.61998 -0.09584
 C229 C 0.11452 0.38683 -0.09265
 N230 N 0.08356 0.45490 0.08262
 N231 N 0.08998 0.41514 0.10953
 N232 N 0.11231 0.55928 0.04384
 N233 N 0.13898 0.60035 0.04249
 N234 N 0.08224 0.56033 0.07963
 N235 N 0.08760 0.60218 0.10385
 N236 N 0.11397 0.45412 0.04715
 N237 N 0.14260 0.41402 0.04907
 Mn238 Mn 0.03149 0.50713 0.08748
 Mn239 Mn 0.10832 0.50496 -0.00411
 Cl240 Cl 0.02163 0.50471 0.00414
 C241 C 0.12705 0.39037 0.08820
 C242 C 0.12330 0.62646 0.08029
 N243 N 1.04032 -0.10715 0.44618
 N244 N 1.04644 -0.14149 0.41321
 N245 N 1.07625 -0.07727 0.54482
 N246 N 1.10284 -0.08394 0.58278
 N247 N 1.03967 -0.10869 0.54394
 N248 N 1.04035 -0.13804 0.58124
 N249 N 1.07735 -0.07640 0.44742
 N250 N 1.11002 -0.08873 0.41561
 C251 C 1.09004 -0.12923 0.39465
 C252 C 1.08007 -0.12216 0.60481
 N253 N 1.05809 0.06789 0.54687
 N254 N 1.06931 0.09711 0.58296
 N255 N 1.08814 0.02975 0.44802
 N256 N 1.12002 0.03142 0.41352
 N257 N 1.05838 0.06880 0.44700
 N258 N 1.06947 0.09837 0.41109
 N259 N 1.08762 0.02874 0.54554
 N260 N 1.11961 0.02998 0.57991
 Mn261 Mn 1.08253 -0.02374 0.49646
 C262 C 1.10785 0.07255 0.60302
 C263 C 1.10815 0.07422 0.39072
 N264 N 0.93657 -0.09855 0.54288
 N265 N 0.93232 -0.12972 0.57832
 N266 N 0.90550 -0.05898 0.44460
 N267 N 0.87905 -0.06229 0.40540
 N268 N 0.93725 -0.09642 0.44589
 N269 N 0.93351 -0.12567 0.40895
 N270 N 0.90573 -0.06050 0.54621
 N271 N 0.87977 -0.06500 0.58555
 Mn272 Mn 0.98822 -0.10282 0.49464
 C273 C 0.89703 -0.10898 0.60469
 C274 C 0.89722 -0.10470 0.38395
 N275 N 0.95262 0.08188 0.44756
 N276 N 0.95097 0.11366 0.41189
 N277 N 0.91508 0.05025 0.54773
 N278 N 0.88746 0.05998 0.58529
 N279 N 0.95271 0.08083 0.54696
 N280 N 0.95154 0.11169 0.58339
 N281 N 0.91488 0.05146 0.44666
 N282 N 0.88680 0.06201 0.40975
 Mn283 Mn 1.00537 0.07561 0.49705
 Mn284 Mn 0.90901 -0.00429 0.49636
 Cl285 Cl 0.99590 -0.01344 0.49610
 C286 C 0.90986 0.10121 0.38847
 C287 C 0.91078 0.09877 0.60718
 C288 C 1.12122 0.13035 0.32315
 C289 C 1.13474 0.09021 0.34845
 H290 H 1.08972 0.15163 0.33551
 H291 H 1.16515 0.06658 0.33810
 C292 C 0.84503 -0.11463 0.31223
 C293 C 0.88371 -0.12729 0.33842
 H294 H 0.82203 -0.08400 0.32490
 H295 H 0.90726 -0.15811 0.32808
 C296 C 0.85697 0.11470 0.67844
 C297 C 0.89629 0.12517 0.65170
 H298 H 0.83360 0.08431 0.66700
 H299 H 0.92056 0.15487 0.66234
 C300 C 1.12733 -0.11762 0.67675
 C301 C 1.09347 -0.14090 0.65089
 H302 H 1.14644 -0.08599 0.66135
 H303 H 1.07436 -0.17397 0.66257
 C304 C 0.31113 1.11770 1.13720
 C305 C 0.33636 1.13664 1.10034
 H306 H 0.32628 1.08511 1.15524
 H307 H 0.32530 1.17044 1.08204
 C308 C 0.30974 0.89367 0.86272
 C309 C 0.33952 0.87069 0.89314
 H310 H 0.32030 0.92999 0.84867
 H311 H 0.33068 0.83405 0.90723
 C312 C 0.66412 0.85323 1.12524
 C313 C 0.63163 0.88571 1.14270
 H314 H 0.65589 0.83551 1.09178
 H315 H 0.63620 0.90370 1.17640
 C316 C 0.68742 1.14133 0.88428
 C317 C 0.65915 1.10148 0.87432
 H318 H 0.67778 1.16326 0.91515
 H319 H 0.66731 1.07780 0.84447
 C320 C 0.12006 0.31298 0.13242
 C321 C 0.14615 0.34219 0.10384
 H322 H 0.08452 0.32582 0.14452
 H323 H 0.18213 0.33158 0.09162
 C324 C -0.10639 0.31999 -0.13928
 C325 C -0.11353 0.34245 -0.09716
 H326 H -0.07852 0.33509 -0.16218
 H327 H -0.14019 0.32783 -0.07298
 C328 C 0.10548 0.70479 -0.12996
 C329 C 0.13184 0.66674 -0.11290
 H330 H 0.06648 0.70032 -0.13465
 H331 H 0.17093 0.67051 -0.10885
 C332 C -0.12751 0.68528 0.12414
 C333 C -0.08530 0.66380 0.13625
 H334 H -0.14704 0.66916 0.09464
 H335 H -0.06385 0.67825 0.16505
 C336 C 1.12152 0.12838 0.67020
 C337 C 1.13479 0.08827 0.64489
 H338 H 1.08967 0.14947 0.65840
 H339 H 1.16552 0.06477 0.65455
 C340 C 0.85258 -0.11400 0.68090
 C341 C 0.88386 -0.13294 0.64952
 H342 H 0.83396 -0.07904 0.67183
 H343 H 0.90198 -0.16859 0.65578
 C344 C 1.15493 -0.14121 0.33826
 C345 C 1.11105 -0.15424 0.35426
 H346 H 1.17647 -0.11375 0.35721
 H347 H 1.08763 -0.17969 0.33517
 C348 C 0.85555 0.11592 0.31822
 C349 C 0.89439 0.12824 0.34490
 H350 H 0.83421 0.08398 0.32976
 H351 H 0.91749 0.15920 0.33505
 C352 C 0.12247 0.31339 -0.14553
 C353 C 0.13833 0.34011 -0.10904
 H354 H 0.08985 0.32718 -0.16315
 H355 H 0.17086 0.32913 -0.09014
 C356 C -0.12403 0.31758 0.13161
 C357 C -0.08401 0.34065 0.14626
 H358 H -0.14214 0.33239 0.10048
 H359 H -0.07348 0.36637 0.13115
 C360 C -0.11191 0.68778 -0.13782
 C361 C -0.12093 0.66189 -0.09792
 H362 H -0.08139 0.67478 -0.15901
 H363 H -0.15057 0.67310 -0.07515
 C364 C 0.13018 0.69565 0.13492
 C365 C 0.14229 0.67560 0.09349
 H366 H 0.10638 0.67406 0.15768
 H367 H 0.16818 0.69292 0.07001
 C368 C 0.31886 1.11122 0.84971
 C369 C 0.34895 1.13038 0.88231
 H370 H 0.32792 1.07459 0.83501
 H371 H 0.34158 1.16726 0.89690
 C372 C 0.28791 0.91862 1.12239
 C373 C 0.31826 0.89356 1.09402
 H374 H 0.29795 0.95547 1.13560
 H375 H 0.31012 0.85574 1.08226
 C376 C 0.68234 1.13241 1.11583
 C377 C 0.64620 1.10536 1.13381
 H378 H 0.67909 1.14518 1.07974
 H379 H 0.64778 1.09263 1.16989
 C380 C 0.68427 0.88167 0.87677
 C381 C 0.65542 0.86104 0.90913
 H382 H 0.67314 0.91785 0.86231
 H383 H 0.66463 0.82518 0.92504
   
