data_POSCAR
  _audit_creation_date              2014-09-24
  _audit_creation_method            'ToBaCCo'
  _symmetry_space_group_name_H-M    'P1'
  _symmetry_Int_Tables_number       1
  _symmetry_cell_setting            triclinic
  loop_
  _symmetry_equiv_pos_as_xyz
 x,y,z
_cell_length_a 55.1860
_cell_length_b 55.1861
_cell_length_c 77.4287
_cell_angle_alpha 90.000000
_cell_angle_beta 90.000000
_cell_angle_gamma 120.000000
loop_
  _atom_site_label
  _atom_site_type_symbol
  _atom_site_fract_x
  _atom_site_fract_y
  _atom_site_fract_z
C1 C -0.01671 0.49208 1.24992
 C2 C 0.01432 0.50666 1.24986
 C3 C 0.03235 0.51545 1.26772
 C4 C 0.03299 0.51577 1.23208
 C5 C -0.03474 0.48325 1.23204
 C6 C -0.03535 0.48302 1.26773
 C7 C 0.03651 0.53829 1.27859
 C8 C 0.05426 0.54727 1.29399
 C9 C 0.06964 0.53433 1.30009
 C10 C 0.06523 0.51132 1.28936
 C11 C 0.04752 0.50236 1.27399
 C12 C 0.02593 0.52427 1.21615
 C13 C 0.04363 0.53326 1.20072
 C14 C 0.07041 0.53502 1.19959
 C15 C 0.07770 0.52695 1.21543
 C16 C 0.06008 0.51799 1.23081
 C17 C -0.03868 0.46054 1.22112
 C18 C -0.05636 0.45154 1.20569
 C19 C -0.07188 0.46435 1.19960
 C20 C -0.06769 0.48724 1.21039
 C21 C -0.05004 0.49621 1.22579
 C22 C -0.02826 0.47455 1.28365
 C23 C -0.04586 0.46566 1.29913
 C24 C -0.07260 0.46398 1.30030
 C25 C -0.07997 0.47201 1.28446
 C26 C -0.06240 0.48087 1.26904
 H27 H 0.02614 0.54980 1.27504
 H28 H 0.05601 0.56490 1.30117
 H29 H 0.07576 0.49991 1.29281
 H30 H 0.04572 0.48465 1.26688
 H31 H 0.00676 0.52495 1.21552
 H32 H 0.03613 0.53923 1.18950
 H33 H 0.06823 0.51262 1.24192
 H34 H -0.02817 0.44915 1.22464
 H35 H -0.05791 0.43400 1.19848
 H36 H -0.07831 0.49858 1.20697
 H37 H -0.04838 0.51383 1.23292
 H38 H -0.00912 0.47380 1.28426
 H39 H -0.03829 0.45970 1.31033
 H40 H -0.09986 0.47141 1.28381
 H41 H -0.07058 0.48622 1.25794
 H42 H 0.09762 0.52762 1.21608
 C43 C 0.50785 0.49301 1.25092
 C44 C 0.49139 0.50760 1.25091
 C45 C 0.48212 0.51641 1.26880
 C46 C 0.48186 0.51668 1.23310
 C47 C 0.51707 0.48420 1.23302
 C48 C 0.51746 0.48390 1.26868
 C49 C 0.45383 0.50344 1.27504
 C50 C 0.44506 0.51239 1.29043
 C51 C 0.46371 0.53530 1.30124
 C52 C 0.49208 0.54815 1.29518
 C53 C 0.50082 0.53914 1.27975
 C54 C 0.45688 0.51868 1.23173
 C55 C 0.44824 0.52756 1.21629
 C56 C 0.46376 0.53577 1.20050
 C57 C 0.48889 0.53424 1.20175
 C58 C 0.49756 0.52533 1.21723
 C59 C 0.54532 0.49728 1.22671
 C60 C 0.55404 0.48830 1.21132
 C61 C 0.53544 0.46527 1.20059
 C62 C 0.50712 0.45234 1.20674
 C63 C 0.49839 0.46135 1.22215
 C64 C 0.54229 0.48163 1.26991
 C65 C 0.55102 0.47269 1.28528
 C66 C 0.53571 0.46470 1.30114
 C67 C 0.51071 0.46652 1.30007
 C68 C 0.50198 0.47549 1.28464
 H69 H 0.43790 0.48581 1.26790
 H70 H 0.42308 0.50099 1.29380
 H71 H 0.50806 0.56571 1.30237
 H72 H 0.52273 0.55057 1.27625
 H73 H 0.44324 0.51317 1.24278
 H74 H 0.42889 0.52805 1.21686
 H75 H 0.51751 0.52621 1.21669
 H76 H 0.56124 0.51499 1.23380
 H77 H 0.57597 0.49973 1.20785
 H78 H 0.49122 0.43469 1.19958
 H79 H 0.47651 0.44982 1.22571
 H80 H 0.55575 0.48694 1.25878
 H81 H 0.57025 0.47199 1.28457
 H82 H 0.49727 0.46061 1.31131
 H83 H 0.48214 0.47485 1.28530
 H84 H 0.50249 0.54035 1.19058
 C85 C 0.50757 1.01596 1.25050
 C86 C 0.49295 0.98494 1.25052
 C87 C 0.48385 0.96623 1.26828
 C88 C 0.48412 0.96696 1.23263
 C89 C 0.51664 1.03459 1.23272
 C90 C 0.51643 1.03401 1.26837
 C91 C 0.48157 0.93913 1.26949
 C92 C 0.47263 0.92147 1.28486
 C93 C 0.46462 0.92877 1.30072
 C94 C 0.46644 0.95558 1.29964
 C95 C 0.47542 0.97330 1.28422
 C96 C 0.49715 0.95174 1.22633
 C97 C 0.48814 0.93407 1.21095
 C98 C 0.46516 0.92976 1.20022
 C99 C 0.45228 0.94519 1.20636
 C100 C 0.46131 0.96289 1.22178
 C101 C 0.51863 1.06156 1.23139
 C102 C 0.52752 1.07911 1.21598
 C103 C 0.53576 1.07184 1.20019
 C104 C 0.53423 1.04519 1.20139
 C105 C 0.52531 1.02757 1.21685
 C106 C 0.50339 1.04923 1.27466
 C107 C 0.51241 1.06696 1.29002
 C108 C 0.53545 1.07135 1.30073
 C109 C 0.54835 1.05592 1.29461
 C110 C 0.53928 1.03816 1.27921
 H111 H 0.48689 0.93098 1.25837
 H112 H 0.47191 0.90153 1.28418
 H113 H 0.46052 0.96307 1.31089
 H114 H 0.47478 0.99249 1.28489
 H115 H 0.51484 0.95348 1.23343
 H116 H 0.49951 0.92351 1.20747
 H117 H 0.44984 0.97331 1.22535
 H118 H 0.51310 1.06965 1.24245
 H119 H 0.52801 1.09895 1.21657
 H120 H 0.54036 1.03773 1.19021
 H121 H 0.52618 1.00849 1.21629
 H122 H 0.48567 1.04744 1.26757
 H123 H 0.50100 1.07749 1.29347
 H124 H 0.56600 1.05763 1.30175
 H125 H 0.55076 1.02775 1.27565
 H126 H 0.43467 0.94351 1.19919
 C127 C 1.01607 0.50794 0.74959
 C128 C 0.98500 0.49245 0.74964
 C129 C 0.96643 0.48338 0.73192
 C130 C 0.96648 0.48302 0.76740
 C131 C 1.03462 0.51749 0.76731
 C132 C 1.03460 0.51690 0.73183
 C133 C 0.97186 0.50055 0.71684
 C134 C 0.95417 0.49184 0.70141
 C135 C 0.92909 0.46522 0.69953
 C136 C 0.92349 0.44824 0.71461
 C137 C 0.94114 0.45691 0.72999
 C138 C 0.94109 0.48404 0.76931
 C139 C 0.92348 0.47513 0.78472
 C140 C 0.92920 0.46398 0.79987
 C141 C 0.95438 0.46261 0.79802
 C142 C 0.97203 0.47152 0.78255
 C143 C 1.05983 0.51617 0.76931
 C144 C 1.07744 0.52516 0.78470
 C145 C 1.07190 0.53670 0.79974
 C146 C 1.04690 0.53838 0.79779
 C147 C 1.02924 0.52937 0.78234
 C148 C 1.02899 0.49975 0.71671
 C149 C 1.04663 0.50835 0.70124
 C150 C 1.07187 0.53487 0.69936
 C151 C 1.07766 0.55184 0.71448
 C152 C 1.06004 0.54325 0.72989
 H153 H 0.98995 0.52137 0.71693
 H154 H 0.96031 0.50650 0.69078
 H155 H 0.90497 0.42769 0.71465
 H156 H 0.93474 0.44226 0.74063
 H157 H 0.93456 0.49209 0.75863
 H158 H 0.90488 0.47702 0.78464
 H159 H 0.99019 0.46891 0.78250
 H160 H 1.06619 0.50780 0.75872
 H161 H 1.09589 0.52302 0.78472
 H162 H 1.04080 0.54700 0.80837
 H163 H 1.01121 0.53220 0.78219
 H164 H 1.01078 0.47901 0.71680
 H165 H 1.04030 0.49368 0.69062
 H166 H 1.09629 0.57231 0.71455
 H167 H 1.06660 0.55788 0.74054
 H168 H 0.96064 0.45429 0.80868
 C169 C 0.49194 0.50706 0.74994
 C170 C 0.50841 0.49264 0.74992
 C171 C 0.51759 0.48425 0.73191
 C172 C 0.51779 0.48323 0.76757
 C173 C 0.48262 0.51657 0.76758
 C174 C 0.48269 0.51536 0.73195
 C175 C 0.49901 0.46103 0.72127
 C176 C 0.50772 0.45206 0.70585
 C177 C 0.53592 0.46540 0.69951
 C178 C 0.55443 0.48880 0.71002
 C179 C 0.54571 0.49776 0.72542
 C180 C 0.50059 0.47146 0.78265
 C181 C 0.50924 0.46250 0.79811
 C182 C 0.53584 0.46404 0.80003
 C183 C 0.55283 0.47533 0.78495
 C184 C 0.54421 0.48427 0.76954
 C185 C 0.49982 0.52833 0.78267
 C186 C 0.49122 0.53739 0.79811
 C187 C 0.46468 0.53599 0.80002
 C188 C 0.44769 0.52470 0.78493
 C189 C 0.45626 0.51566 0.76954
 C190 C 0.50121 0.53859 0.72130
 C191 C 0.49242 0.54748 0.70589
 C192 C 0.46420 0.53403 0.69958
 C193 C 0.44576 0.51061 0.71009
 C194 C 0.45455 0.50173 0.72548
 H195 H 0.47723 0.44915 0.72504
 H196 H 0.49192 0.43410 0.69887
 H197 H 0.57627 0.50052 0.70638
 H198 H 0.56155 0.51572 0.73238
 H199 H 0.47975 0.46865 0.78253
 H200 H 0.49456 0.45401 0.80872
 H201 H 0.55899 0.49242 0.75901
 H202 H 0.52064 0.53106 0.78257
 H203 H 0.50591 0.54587 0.80872
 H204 H 0.42719 0.52280 0.78491
 H205 H 0.44148 0.50754 0.75901
 H206 H 0.52298 0.55054 0.72506
 H207 H 0.50816 0.56546 0.69889
 H208 H 0.42392 0.49882 0.70645
 H209 H 0.43877 0.48376 0.73246
 H210 H 0.57337 0.47733 0.78495
 C211 C 0.49248 -0.01532 0.74983
 C212 C 0.50801 0.01574 0.74984
 C213 C 0.51748 0.03426 0.73212
 C214 C 0.51707 0.03429 0.76759
 C215 C 0.48345 -0.03382 0.76756
 C216 C 0.48298 -0.03393 0.73211
 C217 C 0.52912 0.02876 0.71702
 C218 C 0.53807 0.04641 0.70157
 C219 C 0.53659 0.07152 0.69970
 C220 C 0.52529 0.07719 0.71480
 C221 C 0.51635 0.05958 0.73019
 C222 C 0.54352 0.05962 0.76953
 C223 C 0.55219 0.07726 0.78492
 C224 C 0.53525 0.07162 0.80003
 C225 C 0.50865 0.04650 0.79814
 C226 C 0.49994 0.02882 0.78269
 C227 C 0.45698 -0.05909 0.76952
 C228 C 0.44834 -0.07668 0.78491
 C229 C 0.46535 -0.07103 0.79998
 C230 C 0.49197 -0.04597 0.79808
 C231 C 0.50066 -0.02834 0.78262
 C232 C 0.47127 -0.02853 0.71700
 C233 C 0.46225 -0.04629 0.70158
 C234 C 0.46372 -0.07143 0.69975
 C235 C 0.47508 -0.07698 0.71486
 C236 C 0.48410 -0.05926 0.73022
 H237 H 0.53181 0.01064 0.71711
 H238 H 0.54651 0.04022 0.69093
 H239 H 0.52331 0.09574 0.71483
 H240 H 0.50817 0.06603 0.74083
 H241 H 0.55816 0.06607 0.75888
 H242 H 0.57272 0.09580 0.78487
 H243 H 0.47913 0.01071 0.78262
 H244 H 0.44231 -0.06553 0.75889
 H245 H 0.42779 -0.09520 0.78490
 H246 H 0.50664 -0.03980 0.80869
 H247 H 0.52148 -0.01025 0.78250
 H248 H 0.46859 -0.01041 0.71704
 H249 H 0.45377 -0.04016 0.69094
 H250 H 0.47707 -0.09552 0.71494
 H251 H 0.49231 -0.06566 0.74087
 H252 H 0.49401 0.04031 0.80878
 O253 O 0.37705 0.66430 0.98144
 O254 O 0.37711 0.71342 0.98144
 C255 C 0.36118 0.72193 0.97464
 O256 O 0.33671 0.71349 0.98140
 O257 O 0.28755 0.66443 0.98133
 C258 C 0.27906 0.64000 0.97451
 O259 O 0.28751 0.62398 0.98129
 O260 O 0.33659 0.62391 0.98135
 C261 C 0.36108 0.63987 0.97461
 O262 O 0.37690 0.66423 1.01891
 O263 O 0.37700 0.71339 1.01891
 C264 C 0.36103 0.72190 1.02568
 O265 O 0.33659 0.71344 1.01887
 O266 O 0.28743 0.66433 1.01879
 C267 C 0.27887 0.63984 1.02553
 O268 O 0.28736 0.62387 1.01875
 O269 O 0.33645 0.62382 1.01883
 C270 C 0.36088 0.63976 1.02566
 Cr271 Cr 0.37485 0.68775 1.00017
 Cr272 Cr 0.31315 0.68784 1.00010
 Cr273 Cr 0.31306 0.62606 1.00006
 O274 O 0.33369 0.66722 1.00011
 O275 O 0.62381 0.33687 0.98165
 O276 O 0.62374 0.28774 0.98160
 C277 C 0.63968 0.27924 0.97477
 O278 O 0.66416 0.28772 0.98154
 O279 O 0.71332 0.33680 0.98155
 C280 C 0.72184 0.36127 0.97477
 O281 O 0.71339 0.37726 0.98160
 O282 O 0.66427 0.37727 0.98163
 C283 C 0.63981 0.36130 0.97485
 O284 O 0.62382 0.33687 1.01912
 O285 O 0.62381 0.28775 1.01906
 C286 C 0.63978 0.27924 1.02581
 O287 O 0.66421 0.28769 1.01901
 O288 O 0.71336 0.33677 1.01904
 C289 C 0.72185 0.36122 1.02587
 O290 O 0.71337 0.37721 1.01910
 O291 O 0.66426 0.37728 1.01912
 C292 C 0.63979 0.36133 1.02592
 Cr293 Cr 0.62596 0.31339 1.00036
 Cr294 Cr 0.68769 0.31333 1.00029
 Cr295 Cr 0.68774 0.37510 1.00036
 O296 O 0.66713 0.33394 1.00034
 O297 O 0.66375 0.37676 0.51826
 O298 O 0.71289 0.37682 0.51821
 C299 C 0.72142 0.36088 0.52499
 O300 O 0.71297 0.33643 0.51820
 O301 O 0.66390 0.28728 0.51823
 C302 C 0.63946 0.27876 0.52504
 O303 O 0.62344 0.28721 0.51828
 O304 O 0.62336 0.33630 0.51830
 C305 C 0.63931 0.36078 0.52507
 O306 O 0.66367 0.37674 0.48081
 O307 O 0.71283 0.37680 0.48075
 C308 C 0.72133 0.36085 0.47394
 O309 O 0.71287 0.33639 0.48073
 O310 O 0.66378 0.28722 0.48076
 C311 C 0.63929 0.27868 0.47399
 O312 O 0.62333 0.28717 0.48080
 O313 O 0.62326 0.33628 0.48084
 C314 C 0.63919 0.36076 0.47406
 Cr315 Cr 0.68721 0.37462 0.49951
 Cr316 Cr 0.68730 0.31291 0.49948
 Cr317 Cr 0.62551 0.31282 0.49955
 O318 O 0.66667 0.33345 0.49951
 O319 O 0.33565 0.62186 0.51852
 O320 O 0.28648 0.62178 0.51861
 C321 C 0.27798 0.63771 0.52547
 O322 O 0.28645 0.66219 0.51872
 O323 O 0.33553 0.71137 0.51873
 C324 C 0.36002 0.71993 0.52548
 O325 O 0.37599 0.71145 0.51867
 O326 O 0.37604 0.66233 0.51857
 C327 C 0.36009 0.63784 0.52532
 O328 O 0.33565 0.62198 0.48103
 O329 O 0.28646 0.62193 0.48112
 C330 C 0.27791 0.63790 0.47440
 O331 O 0.28638 0.66232 0.48125
 O332 O 0.33549 0.71148 0.48129
 C333 C 0.35996 0.72002 0.47450
 O334 O 0.37595 0.71151 0.48122
 O335 O 0.37606 0.66242 0.48109
 C336 C 0.36013 0.63797 0.47425
 Cr337 Cr 0.31214 0.62405 0.49982
 Cr338 Cr 0.31204 0.68575 0.49999
 Cr339 Cr 0.37384 0.68584 0.49989
 O340 O 0.33268 0.66522 0.49990
 C341 C 0.45504 0.54417 0.31611
 C342 C 0.44701 0.55219 0.32966
 C343 C 0.43710 0.56201 0.34629
 C344 C 0.42272 0.54431 0.36071
 C345 C 0.41360 0.55330 0.37596
 C346 C 0.41786 0.58102 0.37847
 C347 C 0.43231 0.59868 0.36394
 C348 C 0.44141 0.58966 0.34870
 C349 C 0.40764 0.59111 0.39556
 C350 C 0.41186 0.61882 0.39806
 C351 C 0.40273 0.62781 0.41331
 C352 C 0.38839 0.61011 0.42774
 C353 C 0.38411 0.58248 0.42534
 C354 C 0.39322 0.57346 0.41010
 C355 C 0.37842 0.61993 0.44434
 C356 C 0.37027 0.62797 0.45783
 H357 H 0.41830 0.52287 0.36030
 H358 H 0.40295 0.53786 0.38593
 H359 H 0.43686 0.62013 0.36414
 H360 H 0.45211 0.60488 0.33858
 H361 H 0.42248 0.63425 0.38808
 H362 H 0.40711 0.64923 0.41370
 H363 H 0.37343 0.56726 0.43546
 H364 H 0.38869 0.55202 0.40990
 C365 C 0.45467 0.90924 0.31735
 C366 C 0.44658 0.89317 0.33084
 C367 C 0.43666 0.87338 0.34736
 C368 C 0.42922 0.88050 0.36353
 C369 C 0.42011 0.86232 0.37870
 C370 C 0.41746 0.83503 0.37934
 C371 C 0.42497 0.82804 0.36305
 C372 C 0.43408 0.84624 0.34788
 C373 C 0.40727 0.81466 0.39632
 C374 C 0.40469 0.78740 0.39696
 C375 C 0.39558 0.76921 0.41213
 C376 C 0.38807 0.77629 0.42829
 C377 C 0.39058 0.80340 0.42776
 C378 C 0.39968 0.82161 0.41260
 C379 C 0.37814 0.75646 0.44479
 C380 C 0.37002 0.74021 0.45820
 H381 H 0.43042 0.90063 0.36458
 H382 H 0.41509 0.87015 0.39013
 H383 H 0.42389 0.80803 0.36176
 H384 H 0.43919 0.83872 0.33631
 H385 H 0.40977 0.77960 0.38554
 H386 H 0.39444 0.74911 0.41108
 H387 H 0.38540 0.81089 0.43932
 H388 H 0.40069 0.84159 0.41387
 C389 C 0.08927 0.54423 0.31671
 C390 C 0.10532 0.55224 0.33023
 C391 C 0.12505 0.56203 0.34680
 C392 C 0.12399 0.57935 0.36023
 C393 C 0.14211 0.58834 0.37545
 C394 C 0.16327 0.58100 0.37890
 C395 C 0.16419 0.56361 0.36535
 C396 C 0.14607 0.55463 0.35014
 C397 C 0.18356 0.59107 0.39595
 C398 C 0.20472 0.58371 0.39939
 C399 C 0.22284 0.59271 0.41461
 C400 C 0.22180 0.61003 0.42804
 C401 C 0.20078 0.61745 0.42470
 C402 C 0.18265 0.60846 0.40949
 C403 C 0.24157 0.61986 0.44460
 C404 C 0.25777 0.62790 0.45805
 H405 H 0.10882 0.58622 0.35905
 H406 H 0.13920 0.60140 0.38465
 H407 H 0.17922 0.55657 0.36634
 H408 H 0.14871 0.54154 0.34080
 H409 H 0.20762 0.57065 0.39020
 H410 H 0.23802 0.58584 0.41580
 H411 H 0.19815 0.63055 0.43404
 H412 H 0.16763 0.61551 0.40851
 C413 C 0.54468 0.45539 0.31674
 C414 C 0.55265 0.44731 0.33025
 C415 C 0.56252 0.43740 0.34678
 C416 C 0.55199 0.43602 0.36389
 C417 C 0.56106 0.42693 0.37907
 C418 C 0.58168 0.41822 0.37880
 C419 C 0.59215 0.41967 0.36158
 C420 C 0.58305 0.42876 0.34640
 C421 C 0.59186 0.40804 0.39580
 C422 C 0.61248 0.39934 0.39552
 C423 C 0.62157 0.39025 0.41071
 C424 C 0.61104 0.38886 0.42781
 C425 C 0.59049 0.39749 0.42820
 C426 C 0.58139 0.40658 0.41302
 C427 C 0.62094 0.37895 0.44433
 C428 C 0.62907 0.37083 0.45775
 H429 H 0.53630 0.44210 0.36569
 H430 H 0.55148 0.42684 0.39126
 H431 H 0.60781 0.41367 0.35955
 H432 H 0.59245 0.42899 0.33409
 H433 H 0.62207 0.39944 0.38334
 H434 H 0.63726 0.38418 0.40890
 H435 H 0.58109 0.39726 0.44051
 H436 H 0.56571 0.41256 0.41505
 C437 C 0.54481 0.08976 0.31629
 C438 C 0.55289 0.10583 0.32981
 C439 C 0.56278 0.12560 0.34638
 C440 C 0.56238 0.11605 0.36365
 C441 C 0.57144 0.13419 0.37887
 C442 C 0.58191 0.16388 0.37848
 C443 C 0.58224 0.17330 0.36109
 C444 C 0.57317 0.15514 0.34589
 C445 C 0.59206 0.18421 0.39552
 C446 C 0.60254 0.21391 0.39513
 C447 C 0.61160 0.23205 0.41034
 C448 C 0.61120 0.22251 0.42761
 C449 C 0.60079 0.19296 0.42812
 C450 C 0.59172 0.17480 0.41291
 C451 C 0.62109 0.24230 0.44418
 C452 C 0.62920 0.25851 0.45763
 H453 H 0.55488 0.09399 0.36557
 H454 H 0.57008 0.12436 0.39118
 H455 H 0.58966 0.19526 0.35896
 H456 H 0.57440 0.16466 0.33345
 H457 H 0.60390 0.22373 0.38282
 H458 H 0.61910 0.25410 0.40842
 H459 H 0.59955 0.18345 0.44055
 H460 H 0.58429 0.15284 0.41505
 C461 C 0.90923 0.45475 0.31596
 C462 C 0.89328 0.44674 0.32952
 C463 C 0.87364 0.43694 0.34613
 C464 C 0.85218 0.44378 0.34932
 C465 C 0.83412 0.43477 0.36456
 C466 C 0.83556 0.41792 0.37828
 C467 C 0.85716 0.41114 0.37497
 C468 C 0.87521 0.42016 0.35973
 C469 C 0.81534 0.40783 0.39535
 C470 C 0.81675 0.39096 0.40906
 C471 C 0.79868 0.38195 0.42430
 C472 C 0.77724 0.38881 0.42750
 C473 C 0.77570 0.40561 0.41391
 C474 C 0.79375 0.41463 0.39866
 C475 C 0.75754 0.37897 0.44408
 C476 C 0.74140 0.37090 0.45756
 H477 H 0.84913 0.45642 0.33985
 H478 H 0.81872 0.44135 0.36543
 H479 H 0.86048 0.39853 0.38430
 H480 H 0.89075 0.41375 0.35865
 H481 H 0.83213 0.38435 0.40819
 H482 H 0.80171 0.36927 0.43377
 H483 H 0.76016 0.41203 0.41498
 H484 H 0.79045 0.42726 0.38934
 C485 C 0.54514 0.45533 1.18394
 C486 C 0.55316 0.44730 1.17040
 C487 C 0.56306 0.43747 1.15378
 C488 C 0.58527 0.45602 1.14253
 C489 C 0.59438 0.44702 1.12729
 C490 C 0.58225 0.41843 1.12162
 C491 C 0.55996 0.39992 1.13299
 C492 C 0.55087 0.40896 1.14822
 C493 C 0.59244 0.40832 1.10455
 C494 C 0.58034 0.37973 1.09889
 C495 C 0.58944 0.37072 1.08365
 C496 C 0.61164 0.38928 1.07239
 C497 C 0.62381 0.41780 1.07794
 C498 C 0.61472 0.42683 1.09318
 C499 C 0.62158 0.37944 1.05580
 C500 C 0.62970 0.37138 1.04232
 H501 H 0.59603 0.47815 1.14550
 H502 H 0.61140 0.46314 1.11989
 H503 H 0.54901 0.37777 1.13021
 H504 H 0.53384 0.39306 1.15578
 H505 H 0.56333 0.36360 1.10630
 H506 H 0.57871 0.34859 1.08070
 H507 H 0.64083 0.43370 1.07038
 H508 H 0.62565 0.44898 1.09595
 C509 C 0.90980 0.45506 1.18399
 C510 C 0.89381 0.44703 1.17044
 C511 C 0.87415 0.43721 1.15382
 C512 C 0.87702 0.42215 1.13963
 C513 C 0.85898 0.41314 1.12437
 C514 C 0.83608 0.41820 1.12163
 C515 C 0.83334 0.43333 1.13594
 C516 C 0.85139 0.44233 1.15119
 C517 C 0.81586 0.40812 1.10454
 C518 C 0.79295 0.41317 1.10181
 C519 C 0.77491 0.40416 1.08656
 C520 C 0.77777 0.38911 1.07236
 C521 C 0.80054 0.38399 1.07498
 C522 C 0.81860 0.39300 1.09023
 C523 C 0.75807 0.37927 1.05575
 C524 C 0.74193 0.37122 1.04227
 H525 H 0.89360 0.41711 1.14024
 H526 H 0.86336 0.40192 1.11457
 H527 H 0.81689 0.43852 1.13554
 H528 H 0.84728 0.45359 1.16114
 H529 H 0.78857 0.42438 1.11162
 H530 H 0.75832 0.40919 1.08596
 H531 H 0.80464 0.37273 1.06503
 H532 H 0.83505 0.38781 1.09062
 C533 C 0.54564 0.09125 1.18351
 C534 C 0.55368 0.10722 1.16997
 C535 C 0.56353 0.12687 1.15340
 C536 C 0.56398 0.11739 1.13624
 C537 C 0.57303 0.13545 1.12101
 C538 C 0.58260 0.16496 1.12130
 C539 C 0.58208 0.17431 1.13858
 C540 C 0.57303 0.15623 1.15380
 C541 C 0.59272 0.18519 1.10426
 C542 C 0.60227 0.21470 1.10455
 C543 C 0.61131 0.23276 1.08932
 C544 C 0.61180 0.22330 1.07217
 C545 C 0.60232 0.19395 1.07176
 C546 C 0.59327 0.17586 1.08698
 C547 C 0.62166 0.24300 1.05561
 C548 C 0.62974 0.25915 1.04215
 H549 H 0.55720 0.09546 1.13443
 H550 H 0.57238 0.12572 1.10878
 H551 H 0.58878 0.19614 1.14062
 H552 H 0.57355 0.16564 1.16615
 H553 H 0.60289 0.22442 1.11678
 H554 H 0.61808 0.25469 1.09114
 H555 H 0.60183 0.18455 1.05940
 H556 H 0.58659 0.15404 1.08494
 C557 C 0.45426 0.54564 1.18378
 C558 C 0.44637 0.55367 1.17021
 C559 C 0.43662 0.56352 1.15358
 C560 C 0.43591 0.58908 1.15254
 C561 C 0.42694 0.59813 1.13729
 C562 C 0.41768 0.58258 1.12140
 C563 C 0.41846 0.55694 1.12255
 C564 C 0.42744 0.54791 1.13781
 C565 C 0.40762 0.59270 1.10432
 C566 C 0.39831 0.57712 1.08844
 C567 C 0.38933 0.58617 1.07319
 C568 C 0.38867 0.61176 1.07214
 C569 C 0.39791 0.62739 1.08790
 C570 C 0.40690 0.61836 1.10316
 C571 C 0.37887 0.62161 1.05554
 C572 C 0.37084 0.62969 1.04205
 H573 H 0.44244 0.60257 1.16377
 H574 H 0.42737 0.61788 1.13817
 H575 H 0.41201 0.54323 1.11146
 H576 H 0.42713 0.52817 1.13715
 H577 H 0.39783 0.55735 1.08756
 H578 H 0.38275 0.57266 1.06197
 H579 H 0.39826 0.64715 1.08856
 H580 H 0.41339 0.63209 1.11424
 C581 C 0.08991 0.54498 1.18293
 C582 C 0.10595 0.55308 1.16942
 C583 C 0.12571 0.56300 1.15288
 C584 C 0.14963 0.55957 1.15083
 C585 C 0.16779 0.56868 1.13564
 C586 C 0.16400 0.58222 1.12084
 C587 C 0.13994 0.58558 1.12300
 C588 C 0.12179 0.57646 1.13819
 C589 C 0.18434 0.59242 1.10383
 C590 C 0.18059 0.60600 1.08904
 C591 C 0.19876 0.61512 1.07385
 C592 C 0.22265 0.61164 1.07180
 C593 C 0.22654 0.59813 1.08648
 C594 C 0.20838 0.58901 1.10167
 C595 C 0.24246 0.62159 1.05528
 C596 C 0.25869 0.62973 1.04185
 H597 H 0.15458 0.54960 1.16119
 H598 H 0.18518 0.56486 1.13570
 H599 H 0.13470 0.59549 1.11278
 H600 H 0.10427 0.58013 1.13835
 H601 H 0.16322 0.60986 1.08899
 H602 H 0.19385 0.62513 1.06350
 H603 H 0.24404 0.59444 1.08632
 H604 H 0.21359 0.57906 1.11188
 C605 C 0.45520 0.91017 1.18358
 C606 C 0.44715 0.89415 1.17005
 C607 C 0.43730 0.87446 1.15345
 C608 C 0.43064 0.84581 1.15351
 C609 C 0.42161 0.82772 1.13828
 C610 C 0.41824 0.83631 1.12131
 C611 C 0.42497 0.86511 1.12137
 C612 C 0.43401 0.88318 1.13661
 C613 C 0.40812 0.81605 1.10425
 C614 C 0.40475 0.82464 1.08728
 C615 C 0.39570 0.80654 1.07205
 C616 C 0.38904 0.77789 1.07211
 C617 C 0.39235 0.76918 1.08896
 C618 C 0.40139 0.78726 1.10420
 C619 C 0.37916 0.75817 1.05553
 C620 C 0.37108 0.74201 1.04206
 H621 H 0.43241 0.83697 1.16560
 H622 H 0.41722 0.80648 1.14005
 H623 H 0.42332 0.87425 1.10940
 H624 H 0.43850 0.90452 1.13505
 H625 H 0.40914 0.84588 1.08550
 H626 H 0.39393 0.81537 1.05996
 H627 H 0.38786 0.74784 1.09052
 H628 H 0.40305 0.77812 1.11616
 C629 C 0.54558 0.45544 0.68289
 C630 C 0.55352 0.44735 0.66936
 C631 C 0.56331 0.43744 0.65277
 C632 C 0.58453 0.45607 0.64101
 C633 C 0.59354 0.44698 0.62578
 C634 C 0.58229 0.41826 0.62065
 C635 C 0.56099 0.39969 0.63252
 C636 C 0.55200 0.40879 0.64775
 C637 C 0.59238 0.40807 0.60359
 C638 C 0.58114 0.37934 0.59846
 C639 C 0.59016 0.37026 0.58324
 C640 C 0.61137 0.38888 0.57147
 C641 C 0.62267 0.41753 0.57649
 C642 C 0.61367 0.42664 0.59171
 C643 C 0.62121 0.37897 0.55490
 C644 C 0.62927 0.37085 0.54144
 H645 H 0.59455 0.47830 0.64356
 H646 H 0.60977 0.46316 0.61795
 H647 H 0.55078 0.37743 0.63017
 H648 H 0.53575 0.39286 0.65573
 H649 H 0.56492 0.36316 0.60630
 H650 H 0.58016 0.34802 0.58070
 H651 H 0.63892 0.43347 0.56850
 H652 H 0.62387 0.44890 0.59406
 C653 C 0.54641 0.09094 0.68300
 C654 C 0.55436 0.10690 0.66944
 C655 C 0.56409 0.12654 0.65284
 C656 C 0.57261 0.11984 0.63691
 C657 C 0.58155 0.13788 0.62166
 C658 C 0.58293 0.16460 0.62069
 C659 C 0.57434 0.17116 0.63674
 C660 C 0.56541 0.15311 0.65198
 C661 C 0.59293 0.18481 0.60362
 C662 C 0.59427 0.21150 0.60265
 C663 C 0.60320 0.22954 0.58740
 C664 C 0.61176 0.22288 0.57147
 C665 C 0.61049 0.19633 0.57234
 C666 C 0.60156 0.17827 0.58757
 C667 C 0.62151 0.24256 0.55489
 C668 C 0.62950 0.25869 0.54142
 H669 H 0.57243 0.10017 0.63610
 H670 H 0.58747 0.13040 0.61044
 H671 H 0.57440 0.19071 0.63777
 H672 H 0.55941 0.16029 0.66334
 H673 H 0.58832 0.21896 0.61387
 H674 H 0.60335 0.24920 0.58821
 H675 H 0.61653 0.18918 0.56098
 H676 H 0.60154 0.15873 0.58655
 C677 C 0.90963 0.45561 0.68284
 C678 C 0.89364 0.44761 0.66929
 C679 C 0.87396 0.43770 0.65270
 C680 C 0.87900 0.45436 0.63749
 C681 C 0.86093 0.44526 0.62226
 C682 C 0.83583 0.41849 0.62057
 C683 C 0.83092 0.40188 0.63590
 C684 C 0.84901 0.41100 0.65112
 C685 C 0.81558 0.40828 0.60351
 C686 C 0.79049 0.38149 0.60182
 C687 C 0.77242 0.37238 0.58659
 C688 C 0.77743 0.38904 0.57139
 C689 C 0.80237 0.41576 0.57297
 C690 C 0.82046 0.42489 0.58819
 C691 C 0.75770 0.37911 0.55482
 C692 C 0.74154 0.37098 0.54135
 H693 H 0.89737 0.47502 0.63726
 H694 H 0.86707 0.45984 0.61162
 H695 H 0.81268 0.38121 0.63634
 H696 H 0.84315 0.39665 0.66190
 H697 H 0.78437 0.36691 0.61245
 H698 H 0.75406 0.35172 0.58682
 H699 H 0.80819 0.43012 0.56220
 H700 H 0.83868 0.44557 0.58775
 C701 C 0.45447 0.54390 0.68297
 C702 C 0.44646 0.55191 0.66945
 C703 C 0.43659 0.56173 0.65288
 C704 C 0.45336 0.58788 0.64422
 C705 C 0.44430 0.59691 0.62900
 C706 C 0.41746 0.58076 0.62079
 C707 C 0.40075 0.55453 0.62956
 C708 C 0.40984 0.54552 0.64478
 C709 C 0.40730 0.59086 0.60375
 C710 C 0.38047 0.57469 0.59553
 C711 C 0.37140 0.58373 0.58031
 C712 C 0.38816 0.60988 0.57166
 C713 C 0.41491 0.62610 0.57976
 C714 C 0.42400 0.61709 0.59498
 C715 C 0.37826 0.61972 0.55511
 C716 C 0.37016 0.62779 0.54166
 H717 H 0.47407 0.60185 0.64926
 H718 H 0.45895 0.61714 0.62367
 H719 H 0.38003 0.54034 0.62470
 H720 H 0.39541 0.52531 0.65028
 H721 H 0.36582 0.55446 0.60085
 H722 H 0.35070 0.56975 0.57527
 H723 H 0.42932 0.64633 0.57428
 H724 H 0.44471 0.63129 0.59985
 C725 C 0.45382 0.90902 0.68308
 C726 C 0.44581 0.89295 0.66956
 C727 C 0.43600 0.87318 0.65300
 C728 C 0.41679 0.87253 0.64030
 C729 C 0.40778 0.85437 0.62510
 C730 C 0.41701 0.83484 0.62092
 C731 C 0.43629 0.83562 0.63374
 C732 C 0.44529 0.85379 0.64894
 C733 C 0.40694 0.81449 0.60390
 C734 C 0.41617 0.79497 0.59973
 C735 C 0.40717 0.77681 0.58453
 C736 C 0.38796 0.77616 0.57182
 C737 C 0.37867 0.79554 0.57588
 C738 C 0.38765 0.81371 0.59108
 C739 C 0.37814 0.75633 0.55528
 C740 C 0.37008 0.74010 0.54184
 H741 H 0.40839 0.88638 0.64207
 H742 H 0.39319 0.85591 0.61650
 H743 H 0.44487 0.82192 0.63217
 H744 H 0.45990 0.85250 0.65768
 H745 H 0.43076 0.79343 0.60833
 H746 H 0.41556 0.76296 0.58277
 H747 H 0.36404 0.79682 0.56714
 H748 H 0.37907 0.82740 0.59265
 C749 C 0.09006 0.54376 0.68369
 C750 C 0.10601 0.55168 0.67011
 C751 C 0.12565 0.56148 0.65348
 C752 C 0.14653 0.58991 0.64998
 C753 C 0.16458 0.59894 0.63472
 C754 C 0.16373 0.58051 0.62127
 C755 C 0.14271 0.55200 0.62488
 C756 C 0.12467 0.54300 0.64014
 C757 C 0.18395 0.59062 0.60418
 C758 C 0.18312 0.57219 0.59073
 C759 C 0.20118 0.58123 0.57547
 C760 C 0.22205 0.60967 0.57198
 C761 C 0.22301 0.62814 0.58532
 C762 C 0.20496 0.61913 0.60057
 C763 C 0.24176 0.61952 0.55537
 C764 C 0.25790 0.62760 0.54188
 H765 H 0.14913 0.60574 0.65923
 H766 H 0.17950 0.62103 0.63362
 H767 H 0.13986 0.53594 0.61578
 H768 H 0.10961 0.52093 0.64145
 H769 H 0.16822 0.55010 0.59183
 H770 H 0.19862 0.56540 0.56623
 H771 H 0.23807 0.65021 0.58402
 H772 H 0.20780 0.63518 0.60968
 C773 C 0.45516 0.54591 0.81671
 C774 C 0.44722 0.55394 0.83026
 C775 C 0.43741 0.56377 0.84687
 C776 C 0.41235 0.54620 0.85637
 C777 C 0.40330 0.55521 0.87161
 C778 C 0.41834 0.58281 0.87901
 C779 C 0.44348 0.60033 0.86939
 C780 C 0.45251 0.59129 0.85415
 C781 C 0.40821 0.59292 0.89607
 C782 C 0.42326 0.62051 0.90347
 C783 C 0.41420 0.62952 0.91871
 C784 C 0.38913 0.61195 0.92820
 C785 C 0.37402 0.58444 0.92091
 C786 C 0.38306 0.57541 0.90567
 C787 C 0.37925 0.62180 0.94477
 C788 C 0.37116 0.62986 0.95824
 H789 H 0.39927 0.52487 0.85200
 H790 H 0.38396 0.53990 0.87761
 H791 H 0.45677 0.62168 0.87358
 H792 H 0.47184 0.60637 0.84798
 H793 H 0.44261 0.63581 0.89748
 H794 H 0.42728 0.65085 0.92309
 H795 H 0.35466 0.56937 0.92706
 H796 H 0.36975 0.55407 0.90147
 C797 C 0.09132 0.54656 0.81644
 C798 C 0.10728 0.55455 0.83000
 C799 C 0.12691 0.56433 0.84662
 C800 C 0.14975 0.55932 0.84918
 C801 C 0.16780 0.56829 0.86442
 C802 C 0.16496 0.58325 0.87879
 C803 C 0.14197 0.58820 0.87611
 C804 C 0.12394 0.57922 0.86086
 C805 C 0.18516 0.59329 0.89587
 C806 C 0.18235 0.60829 0.91022
 C807 C 0.20040 0.61725 0.92547
 C808 C 0.22321 0.61221 0.92804
 C809 C 0.22616 0.59729 0.91380
 C810 C 0.20812 0.58831 0.89855
 C811 C 0.24289 0.62200 0.94463
 C812 C 0.25901 0.63002 0.95812
 H813 H 0.15394 0.54819 0.83918
 H814 H 0.18433 0.56320 0.86477
 H815 H 0.13752 0.59929 0.88596
 H816 H 0.10728 0.58415 0.86030
 H817 H 0.16585 0.61341 0.90986
 H818 H 0.19624 0.62843 0.93545
 H819 H 0.24280 0.59233 0.91436
 H820 H 0.21256 0.57720 0.88870
 C821 C 0.45577 0.90958 0.81668
 C822 C 0.44778 0.89364 0.83024
 C823 C 0.43790 0.87403 0.84685
 C824 C 0.41033 0.85056 0.84910
 C825 C 0.40122 0.83253 0.86434
 C826 C 0.41872 0.83602 0.87900
 C827 C 0.44638 0.85963 0.87664
 C828 C 0.45546 0.87765 0.86139
 C829 C 0.40853 0.81583 0.89607
 C830 C 0.42605 0.81926 0.91071
 C831 C 0.41693 0.80121 0.92595
 C832 C 0.38934 0.77779 0.92822
 C833 C 0.37177 0.77423 0.91370
 C834 C 0.38086 0.79226 0.89845
 C835 C 0.37942 0.75812 0.94480
 C836 C 0.37128 0.74200 0.95827
 H837 H 0.39527 0.84587 0.83886
 H838 H 0.37984 0.81549 0.86445
 H839 H 0.46167 0.86461 0.88673
 H840 H 0.47682 0.89483 0.86106
 H841 H 0.44745 0.83626 0.91059
 H842 H 0.43201 0.80585 0.93618
 H843 H 0.35038 0.75709 0.91403
 H844 H 0.36554 0.78733 0.88837
 C845 C 0.54541 0.45424 0.81675
 C846 C 0.55339 0.44630 0.83032
 C847 C 0.56326 0.43659 0.84694
 C848 C 0.55027 0.43195 0.86356
 C849 C 0.55935 0.42303 0.87883
 C850 C 0.58241 0.41779 0.87912
 C851 C 0.59533 0.42250 0.86237
 C852 C 0.58624 0.43142 0.84712
 C853 C 0.59259 0.40781 0.89620
 C854 C 0.61569 0.40262 0.89649
 C855 C 0.62477 0.39371 0.91176
 C856 C 0.61176 0.38901 0.92838
 C857 C 0.58874 0.39412 0.92820
 C858 C 0.57964 0.40304 0.91294
 C859 C 0.62166 0.37927 0.94497
 C860 C 0.62976 0.37129 0.95846
 H861 H 0.53262 0.43525 0.86492
 H862 H 0.54777 0.42026 0.89062
 H863 H 0.61298 0.41930 0.86079
 H864 H 0.59761 0.43430 0.83519
 H865 H 0.62728 0.40543 0.88471
 H866 H 0.64245 0.39044 0.91040
 H867 H 0.57734 0.39119 0.94011
 H868 H 0.56195 0.40619 0.91452
 C869 C 0.90977 0.45420 0.81660
 C870 C 0.89381 0.44628 0.83017
 C871 C 0.87417 0.43658 0.84680
 C872 C 0.87127 0.41512 0.85847
 C873 C 0.85322 0.40620 0.87373
 C874 C 0.83609 0.41778 0.87900
 C875 C 0.83912 0.43931 0.86722
 C876 C 0.85717 0.44821 0.85196
 C877 C 0.81587 0.40780 0.89609
 C878 C 0.79873 0.41938 0.90136
 C879 C 0.78068 0.41047 0.91661
 C880 C 0.77778 0.38900 0.92828
 C881 C 0.79477 0.37736 0.92312
 C882 C 0.81283 0.38626 0.90787
 C883 C 0.75807 0.37926 0.94488
 C884 C 0.74193 0.37127 0.95837
 H885 H 0.88320 0.40483 0.85582
 H886 H 0.85292 0.38977 0.88147
 H887 H 0.82735 0.44979 0.86967
 H888 H 0.85771 0.46465 0.84406
 H889 H 0.79904 0.43582 0.89361
 H890 H 0.76875 0.42075 0.91926
 H891 H 0.79422 0.36091 0.93102
 H892 H 0.82459 0.37578 0.90541
 C893 C 0.54487 0.09108 0.81674
 C894 C 0.55287 0.10706 0.83030
 C895 C 0.56278 0.12673 0.84691
 C896 C 0.55780 0.11668 0.86435
 C897 C 0.56691 0.13474 0.87960
 C898 C 0.58201 0.16486 0.87908
 C899 C 0.58693 0.17478 0.86152
 C900 C 0.57781 0.15670 0.84628
 C901 C 0.59222 0.18511 0.89615
 C902 C 0.60731 0.21522 0.89562
 C903 C 0.61642 0.23329 0.91087
 C904 C 0.61147 0.22326 0.92831
 C905 C 0.59645 0.19328 0.92895
 C906 C 0.58733 0.17519 0.91372
 C907 C 0.62141 0.24297 0.94491
 C908 C 0.62956 0.25913 0.95839
 H909 H 0.54657 0.09427 0.86638
 H910 H 0.56182 0.12452 0.89205
 H911 H 0.59811 0.19709 0.85927
 H912 H 0.58274 0.16662 0.83371
 H913 H 0.61237 0.22544 0.88318
 H914 H 0.62764 0.25570 0.90884
 H915 H 0.59155 0.18338 0.94152
 H916 H 0.57616 0.15288 0.91597
   
