data_POSCAR
  _audit_creation_date              2014-09-24
  _audit_creation_method            'ToBaCCo'
  _symmetry_space_group_name_H-M    'P1'
  _symmetry_Int_Tables_number       1
  _symmetry_cell_setting            triclinic
  loop_
  _symmetry_equiv_pos_as_xyz
 x,y,z
_cell_length_a 42.9120
_cell_length_b 43.4177
_cell_length_c 28.9280
_cell_angle_alpha 89.537100
_cell_angle_beta 90.095100
_cell_angle_gamma 90.111400
loop_
  _atom_site_label
  _atom_site_type_symbol
  _atom_site_fract_x
  _atom_site_fract_y
  _atom_site_fract_z
O1 O -0.02582 0.29491 0.03486
 O2 O 0.03625 0.27764 -0.05122
 O3 O -0.02362 0.28885 -0.05304
 O4 O 0.03677 0.29188 0.03715
 O5 O 0.02937 0.24281 0.05451
 O6 O -0.02741 0.23861 -0.04203
 O7 O 0.03417 0.22921 -0.02775
 O8 O -0.02965 0.24504 0.04993
 Cu9 Cu 0.00672 0.29337 -0.00900
 Cu10 Cu 0.00010 0.23418 0.00848
 C11 C -0.03885 0.27237 0.05575
 C12 C 0.04684 0.25020 -0.05190
 C13 C -0.03595 0.26319 -0.06277
 C14 C 0.04389 0.26804 0.06060
 O15 O 0.46737 0.80042 0.54712
 O16 O 0.52488 0.79913 0.45154
 O17 O 0.46362 0.79997 0.45810
 O18 O 0.52927 0.80206 0.54060
 O19 O 0.52930 0.75121 0.54347
 O20 O 0.46441 0.74910 0.46081
 O21 O 0.52427 0.74827 0.45454
 O22 O 0.46879 0.74959 0.55000
 Cu23 Cu 0.49629 0.80558 0.49928
 Cu24 Cu 0.49673 0.74452 0.50271
 C25 C 0.45776 0.77493 0.56388
 C26 C 0.53443 0.77320 0.43712
 C27 C 0.45268 0.77408 0.44583
 C28 C 0.54096 0.77691 0.55507
 O29 O 0.96802 0.74589 -0.04967
 O30 O 1.02155 0.74146 0.05049
 O31 O 0.96034 0.74215 0.03913
 O32 O 1.02922 0.74403 -0.03822
 O33 O 1.02912 0.79478 -0.03496
 O34 O 0.96137 0.79295 0.04171
 O35 O 1.02122 0.79225 0.05414
 O36 O 0.97071 0.79661 -0.04715
 Cu37 Cu 0.99466 0.73819 0.00018
 Cu38 Cu 0.99563 0.79918 0.00414
 C39 C 0.96056 0.77222 -0.06576
 C40 C 1.03065 0.76635 0.06899
 C41 C 0.94902 0.76742 0.05319
 C42 C 1.04078 0.76993 -0.04996
 O43 O 0.53798 0.21051 0.55220
 O44 O 0.47478 0.21912 0.46531
 O45 O 0.53635 0.21852 0.46309
 O46 O 0.47630 0.20939 0.55406
 O47 O 0.47713 0.25969 0.56487
 O48 O 0.53566 0.26884 0.47371
 O49 O 0.47572 0.26943 0.47604
 O50 O 0.53725 0.26083 0.56274
 Cu51 Cu 0.50634 0.20925 0.50765
 Cu52 Cu 0.50643 0.26965 0.52049
 C53 C 0.54849 0.23450 0.57188
 C54 C 0.46462 0.24597 0.45598
 C55 C 0.54616 0.24537 0.45301
 C56 C 0.46640 0.23318 0.57465
 O57 O 0.71579 -0.03044 0.03164
 O58 O 0.73312 0.02729 -0.06077
 O59 O 0.71802 -0.03145 -0.05746
 O60 O 0.72551 0.03027 0.02902
 O61 O 0.77522 0.01904 0.03959
 O62 O 0.76890 -0.03824 -0.05312
 O63 O 0.78299 0.02217 -0.04371
 O64 O 0.76646 -0.03765 0.04010
 Cu65 Cu 0.71796 -0.00007 -0.01501
 Cu66 Cu 0.77810 -0.01087 -0.00544
 C67 C 0.73865 -0.04399 0.05112
 C68 C 0.76137 0.03589 -0.06540
 C69 C 0.74250 -0.04528 -0.07006
 C70 C 0.75154 0.03543 0.04866
 O71 O 0.21771 0.46512 0.55914
 O72 O 0.22198 0.52428 0.46607
 O73 O 0.21367 0.46369 0.46986
 O74 O 0.22420 0.52563 0.55577
 O75 O 0.27517 0.51913 0.55224
 O76 O 0.26479 0.45835 0.46620
 O77 O 0.27290 0.51742 0.46257
 O78 O 0.26890 0.46017 0.55575
 Cu79 Cu 0.21420 0.49533 0.51296
 Cu80 Cu 0.27547 0.48818 0.50873
 C81 C 0.24284 0.45253 0.57298
 C82 C 0.24841 0.53102 0.44885
 C83 C 0.23759 0.45022 0.45397
 C84 C 0.25158 0.53288 0.56854
 O85 O 0.26984 1.02910 0.04982
 O86 O 0.27299 0.96877 -0.04043
 O87 O 0.26631 1.02750 -0.04297
 O88 O 0.27988 0.96708 0.04621
 O89 O 0.22896 0.96113 0.05316
 O90 O 0.21707 1.02844 -0.02164
 O91 O 0.22160 0.96738 -0.03753
 O92 O 0.22066 1.01733 0.06341
 Cu93 Cu 0.27746 0.99952 0.00356
 Cu94 Cu 0.21696 0.99240 0.01329
 C95 C 0.24467 1.03324 0.07239
 C96 C 0.24712 0.95811 -0.05453
 C97 C 0.23945 1.03969 -0.04512
 C98 C 0.25654 0.95302 0.06340
 O99 O 0.77634 0.52874 0.53301
 O100 O 0.77156 0.46712 0.44481
 O101 O 0.76703 0.52743 0.44454
 O102 O 0.78478 0.46792 0.53241
 O103 O 0.73447 0.46321 0.54705
 O104 O 0.71673 0.52163 0.45848
 O105 O 0.72122 0.46278 0.45949
 O106 O 0.72619 0.52226 0.54719
 Cu107 Cu 0.78009 0.49833 0.48754
 Cu108 Cu 0.71972 0.49195 0.50471
 C109 C 0.75166 0.53617 0.55456
 C110 C 0.74517 0.45473 0.43712
 C111 C 0.73885 0.53449 0.43641
 C112 C 0.76250 0.45509 0.55408
 C113 C 0.23446 0.18843 0.19912
 C114 C 0.20464 0.19863 0.18707
 C115 C 0.19279 0.22683 0.20221
 C116 C 0.21185 0.24606 0.22987
 C117 C 0.24175 0.23546 0.24414
 C118 C 0.25292 0.20641 0.22914
 C119 C 0.28194 0.19587 0.24524
 C120 C 0.30008 0.21367 0.27455
 C121 C 0.28966 0.24244 0.28994
 C122 C 0.26047 0.25380 0.27383
 C123 C 0.20176 0.27522 0.24441
 C124 C 0.22083 0.29389 0.27154
 C125 C 0.25011 0.28355 0.28697
 C126 C 0.26973 0.30220 0.31450
 C127 C 0.29789 0.29018 0.33107
 C128 C 0.30789 0.26052 0.32024
 H129 H 0.29088 0.17353 0.23583
 H130 H 0.32261 0.20467 0.28445
 H131 H 0.17911 0.28402 0.23467
 H132 H 0.21222 0.31642 0.28072
 H133 H 0.19048 0.18451 0.16442
 H134 H 0.31213 0.30417 0.35380
 C135 C 0.71459 0.68252 0.28633
 C136 C 0.68472 0.69178 0.29951
 C137 C 0.67100 0.71872 0.28237
 C138 C 0.68760 0.73721 0.25036
 C139 C 0.71787 0.72809 0.23600
 C140 C 0.73133 0.70050 0.25363
 C141 C 0.76088 0.69160 0.23765
 C142 C 0.77775 0.71024 0.20729
 C143 C 0.76521 0.73789 0.19000
 C144 C 0.73480 0.74675 0.20417
 C145 C 0.67460 0.76432 0.23184
 C146 C 0.69142 0.78289 0.20149
 C147 C 0.72155 0.77465 0.18747
 C148 C 0.73914 0.79392 0.15799
 C149 C 0.76914 0.78522 0.14500
 C150 C 0.78237 0.75744 0.15986
 H151 H 0.77138 0.67010 0.24839
 H152 H 0.80088 0.70275 0.19790
 H153 H 0.65126 0.77154 0.24057
 H154 H 0.68053 0.80388 0.18919
 H155 H 0.67232 0.67832 0.32537
 H156 H 0.78240 0.80038 0.12237
 C157 C 0.79834 0.24001 0.15731
 C158 C 0.78734 0.21140 0.14244
 C159 C 0.76120 0.19743 0.16251
 C160 C 0.74539 0.21243 0.19886
 C161 C 0.75665 0.24121 0.21496
 C162 C 0.78317 0.25507 0.19403
 C163 C 0.79334 0.28398 0.20951
 C164 C 0.77822 0.29880 0.24547
 C165 C 0.75243 0.28522 0.26757
 C166 C 0.74120 0.25631 0.25180
 C167 C 0.71884 0.19942 0.21973
 C168 C 0.70317 0.21463 0.25492
 C169 C 0.71414 0.24286 0.27200
 C170 C 0.69841 0.25862 0.30774
 C171 C 0.71005 0.28689 0.32289
 C172 C 0.73679 0.30025 0.30390
 H173 H 0.81295 0.29564 0.19363
 H174 H 0.78673 0.32128 0.25521
 H175 H 0.70969 0.17742 0.20882
 H176 H 0.68225 0.20398 0.26835
 H177 H 0.79934 0.19982 0.11455
 H178 H 0.69811 0.29873 0.35061
 C179 C 0.30389 0.72473 0.31106
 C180 C 0.29177 0.69643 0.32624
 C181 C 0.26144 0.68710 0.31571
 C182 C 0.24263 0.70618 0.28738
 C183 C 0.25423 0.73525 0.27217
 C184 C 0.28485 0.74475 0.28439
 C185 C 0.29562 0.77369 0.26892
 C186 C 0.27638 0.79347 0.24369
 C187 C 0.24611 0.78452 0.23111
 C188 C 0.23514 0.75485 0.24464
 C189 C 0.21277 0.69681 0.27327
 C190 C 0.19419 0.71588 0.24609
 C191 C 0.20495 0.74484 0.23110
 C192 C 0.18616 0.76438 0.20356
 C193 C 0.19681 0.79390 0.19235
 C194 C 0.22619 0.80447 0.20594
 H195 H 0.31904 0.78150 0.27615
 H196 H 0.28559 0.81577 0.23378
 H197 H 0.20349 0.67447 0.28273
 H198 H 0.17107 0.70776 0.23749
 H199 H 0.30592 0.68179 0.34840
 H200 H 0.18212 0.80888 0.17148
 C201 C 0.69607 0.27381 0.71409
 C202 C 0.70733 0.30288 0.70154
 C203 C 0.73856 0.31124 0.70768
 C204 C 0.75990 0.28918 0.72513
 C205 C 0.74881 0.25959 0.73870
 C206 C 0.71663 0.25237 0.73465
 C207 C 0.70559 0.22455 0.75325
 C208 C 0.72593 0.20335 0.77303
 C209 C 0.75838 0.20804 0.77208
 C210 C 0.76983 0.23723 0.75683
 C211 C 0.79172 0.29598 0.73023
 C212 C 0.81240 0.27404 0.74765
 C213 C 0.80197 0.24466 0.76150
 C214 C 0.82277 0.22247 0.77997
 C215 C 0.81151 0.19298 0.79034
 C216 C 0.77977 0.18531 0.78794
 H217 H 0.68090 0.21939 0.75413
 H218 H 0.71545 0.18374 0.78991
 H219 H 0.80098 0.31834 0.72076
 H220 H 0.83679 0.28026 0.74970
 H221 H 0.69165 0.31916 0.68499
 H222 H 0.82767 0.17610 0.80409
 C223 C 0.31222 0.72425 0.70501
 C224 C 0.29888 0.69698 0.68876
 C225 C 0.26873 0.68780 0.70096
 C226 C 0.25121 0.70622 0.73165
 C227 C 0.26437 0.73397 0.74877
 C228 C 0.29483 0.74319 0.73501
 C229 C 0.30723 0.77080 0.75221
 C230 C 0.28993 0.78946 0.78126
 C231 C 0.26009 0.78060 0.79612
 C232 C 0.24710 0.75251 0.77992
 C233 C 0.22119 0.69756 0.74618
 C234 C 0.20400 0.71606 0.77580
 C235 C 0.21668 0.74324 0.79405
 C236 C 0.19970 0.76198 0.82508
 C237 C 0.21298 0.78963 0.84002
 C238 C 0.24249 0.79934 0.82598
 H239 H 0.33050 0.77840 0.74350
 H240 H 0.30038 0.81092 0.79201
 H241 H 0.21055 0.67632 0.73493
 H242 H 0.18053 0.70879 0.78379
 H243 H 0.31199 0.68297 0.66477
 H244 H 0.20010 0.80401 0.86380
 C245 C 0.23716 0.18991 0.80608
 C246 C 0.20632 0.20029 0.80872
 C247 C 0.19810 0.23135 0.80399
 C248 C 0.22114 0.25262 0.78885
 C249 C 0.25176 0.24184 0.77905
 C250 C 0.26042 0.21095 0.79032
 C251 C 0.29212 0.20292 0.78722
 C252 C 0.31383 0.22283 0.76724
 C253 C 0.30519 0.25240 0.75233
 C254 C 0.27435 0.26263 0.76069
 C255 C 0.21529 0.28444 0.78523
 C256 C 0.23695 0.30439 0.76556
 C257 C 0.26611 0.29372 0.75114
 C258 C 0.28783 0.31363 0.72946
 C259 C 0.31768 0.30259 0.71972
 C260 C 0.32689 0.27262 0.73127
 H261 H 0.30100 0.18149 0.80058
 H262 H 0.33773 0.21509 0.76465
 H263 H 0.19427 0.29474 0.79801
 H264 H 0.23088 0.32852 0.76292
 H265 H 0.18834 0.18396 0.81876
 H266 H 0.33381 0.31728 0.70090
 C267 C 0.74169 0.69824 0.66523
 C268 C 0.71078 0.70664 0.65704
 C269 C 0.69848 0.73453 0.67276
 C270 C 0.71799 0.75503 0.69752
 C271 C 0.74924 0.74633 0.70745
 C272 C 0.76111 0.71785 0.69128
 C273 C 0.79187 0.70950 0.70226
 C274 C 0.81062 0.72852 0.72887
 C275 C 0.79916 0.75630 0.74648
 C276 C 0.76855 0.76592 0.73428
 C277 C 0.70707 0.78356 0.71357
 C278 C 0.72654 0.80348 0.73780
 C279 C 0.75720 0.79499 0.74900
 C280 C 0.77708 0.81471 0.77426
 C281 C 0.80646 0.80412 0.78768
 C282 C 0.81756 0.77507 0.77548
 H283 H 0.80172 0.68795 0.69090
 H284 H 0.83438 0.72130 0.73504
 H285 H 0.68334 0.79089 0.70773
 H286 H 0.71713 0.82542 0.74832
 H287 H 0.69614 0.69135 0.63691
 H288 H 0.82057 0.81862 0.80984
 C289 C 0.25875 0.10548 0.13218
 C290 C 0.23148 0.10773 0.15870
 N291 N 0.21074 0.08421 0.15913
 C292 C 0.21547 0.05878 0.13319
 C293 C 0.24222 0.05667 0.10508
 N294 N 0.26362 0.07996 0.10613
 N295 N 0.27863 0.12985 0.13014
 C296 C 0.27226 0.15644 0.15294
 C297 C 0.24478 0.15877 0.17920
 N298 N 0.22514 0.13418 0.18129
 H299 H 0.19796 0.04078 0.13363
 H300 H 0.28789 0.17590 0.14934
 C301 C 0.76541 0.61398 0.60210
 C302 C 0.74203 0.61536 0.63596
 N303 N 0.72462 0.59003 0.64548
 C304 C 0.72890 0.56351 0.62182
 C305 C 0.75144 0.56226 0.58664
 N306 N 0.76953 0.58750 0.57804
 N307 N 0.78198 0.63978 0.59156
 C308 C 0.77594 0.66697 0.61288
 C309 C 0.75213 0.66848 0.64613
 N310 N 0.73581 0.64250 0.65680
 H311 H 0.71404 0.54392 0.62923
 H312 H 0.78883 0.68742 0.60294
 C313 C 0.71716 0.88016 0.09911
 C314 C 0.73886 0.87761 0.13537
 N315 N 0.75639 0.90231 0.14722
 C316 C 0.75415 0.92920 0.12328
 C317 C 0.73385 0.93138 0.08524
 N318 N 0.71533 0.90693 0.07453
 N319 N 0.70067 0.85490 0.08613
 C320 C 0.70553 0.82706 0.10691
 C321 C 0.72828 0.82430 0.14165
 N322 N 0.74414 0.84979 0.15529
 H323 H 0.76946 0.94814 0.13205
 H324 H 0.69295 0.80701 0.09493
 C325 C 0.27091 0.39928 0.66387
 C326 C 0.24819 0.37601 0.66282
 N327 N 0.22238 0.37989 0.63610
 C328 C 0.21872 0.40563 0.60939
 C329 C 0.24246 0.42796 0.60816
 N330 N 0.26782 0.42431 0.63596
 N331 N 0.29664 0.39564 0.69057
 C332 C 0.30129 0.36926 0.71514
 C333 C 0.27972 0.34489 0.71176
 N334 N 0.25335 0.34915 0.68606
 H335 H 0.19844 0.40772 0.58729
 H336 H 0.32234 0.36678 0.73549
 C337 C 0.87842 0.27131 0.08610
 C338 C 0.87980 0.26482 0.13370
 N339 N 0.90779 0.26531 0.15569
 C340 C 0.93458 0.27112 0.13198
 C341 C 0.93335 0.27659 0.08411
 N342 N 0.90518 0.27674 0.06245
 N343 N 0.85077 0.26927 0.06350
 C344 C 0.82445 0.26048 0.08615
 C345 C 0.82585 0.25318 0.13349
 N346 N 0.85353 0.25580 0.15631
 H347 H 0.95676 0.26969 0.14975
 H348 H 0.80276 0.25845 0.06723
 C349 C 0.40051 0.74257 0.64599
 C350 C 0.37756 0.76553 0.64636
 N351 N 0.38293 0.79265 0.62394
 C352 C 0.40987 0.79749 0.60007
 C353 C 0.43206 0.77378 0.59744
 N354 N 0.42686 0.74703 0.62108
 N355 N 0.39526 0.71539 0.66806
 C356 C 0.36774 0.70978 0.68966
 C357 C 0.34401 0.73209 0.68833
 N358 N 0.34966 0.75964 0.66687
 H359 H 0.41306 0.81888 0.58116
 H360 H 0.36399 0.68771 0.70643
 C361 C 0.10184 0.74591 0.13404
 C362 C 0.10457 0.77115 0.16383
 N363 N 0.08156 0.79246 0.16529
 C364 C 0.05627 0.79023 0.13726
 C365 C 0.05400 0.76569 0.10603
 N366 N 0.07666 0.74377 0.10575
 N367 N 0.12570 0.72554 0.13088
 C368 C 0.15245 0.72963 0.15542
 C369 C 0.15555 0.75536 0.18432
 N370 N 0.13131 0.77536 0.18789
 H371 H 0.03870 0.80807 0.13807
 H372 H 0.17166 0.71387 0.15064
 C373 C 0.60640 0.25885 0.65877
 C374 C 0.62963 0.23641 0.65396
 N375 N 0.62439 0.21189 0.62606
 C376 C 0.59732 0.20928 0.60170
 C377 C 0.57489 0.23277 0.60428
 N378 N 0.57993 0.25675 0.63340
 N379 N 0.61157 0.28353 0.68618
 C380 C 0.63940 0.28743 0.70778
 C381 C 0.66357 0.26614 0.70066
 N382 N 0.65783 0.24076 0.67442
 H383 H 0.59416 0.19004 0.57859
 H384 H 0.64318 0.30777 0.72847
 C385 C 0.75700 0.09904 0.85064
 C386 C 0.78285 0.11646 0.86438
 N387 N 0.80215 0.10570 0.89772
 C388 C 0.79643 0.07839 0.91891
 C389 C 0.76906 0.06183 0.90826
 N390 N 0.74990 0.07256 0.87399
 N391 N 0.74005 0.10860 0.81347
 C392 C 0.74721 0.13537 0.79074
 C393 C 0.77103 0.15463 0.80801
 N394 N 0.78857 0.14386 0.84381
 H395 H 0.81222 0.07073 0.94588
 H396 H 0.73452 0.14133 0.75962
 C397 C 0.23636 0.60530 0.38720
 C398 C 0.26269 0.60635 0.35848
 N399 N 0.28234 0.58196 0.35731
 C400 C 0.27726 0.55673 0.38433
 C401 C 0.25141 0.55583 0.41415
 N402 N 0.23130 0.58010 0.41442
 N403 N 0.21753 0.63034 0.38974
 C404 C 0.22404 0.65650 0.36529
 C405 C 0.25061 0.65773 0.33687
 N406 N 0.26926 0.63246 0.33434
 H407 H 0.29373 0.53789 0.38345
 H408 H 0.20932 0.67651 0.36935
 C409 C 0.26446 0.88437 0.88802
 C410 C 0.23835 0.88124 0.85914
 N411 N 0.21733 0.90443 0.85592
 C412 C 0.22075 0.93042 0.88123
 C413 C 0.24632 0.93334 0.91129
 N414 N 0.26787 0.91034 0.91348
 N415 N 0.28447 0.86034 0.89310
 C416 C 0.27924 0.83314 0.87123
 C417 C 0.25277 0.82980 0.84298
 N418 N 0.23310 0.85413 0.83764
 H419 H 0.20314 0.94819 0.87911
 H420 H 0.29476 0.81392 0.87747
 C421 C 0.75974 0.38356 0.37054
 C422 C 0.73069 0.37942 0.34901
 N423 N 0.70816 0.40097 0.35378
 C424 C 0.71305 0.42625 0.38006
 C425 C 0.74171 0.43016 0.40289
 N426 N 0.76465 0.40885 0.39709
 N427 N 0.78170 0.36119 0.36712
 C428 C 0.77574 0.33470 0.34374
 C429 C 0.74643 0.33036 0.32288
 N430 N 0.72472 0.35300 0.32608
 H431 H 0.69440 0.44277 0.38410
 H432 H 0.79319 0.31675 0.34291
 C433 C 0.11037 0.25344 0.86396
 C434 C 0.12900 0.22930 0.88051
 N435 N 0.11914 0.21156 0.91619
 C436 C 0.09152 0.21716 0.93692
 C437 C 0.07357 0.24282 0.92308
 N438 N 0.08345 0.26046 0.88655
 N439 N 0.11922 0.26878 0.82491
 C440 C 0.14641 0.26170 0.80292
 C441 C 0.16674 0.23967 0.82262
 N442 N 0.15671 0.22368 0.86038
 H443 H 0.08460 0.20260 0.96571
 H444 H 0.15187 0.27306 0.77053
 C445 C 0.58665 0.73898 0.35053
 C446 C 0.60976 0.76169 0.34588
 N447 N 0.60614 0.78912 0.36752
 C448 C 0.58082 0.79454 0.39461
 C449 C 0.55859 0.77112 0.40137
 N450 N 0.56199 0.74404 0.37858
 N451 N 0.59015 0.71150 0.32927
 C452 C 0.61618 0.70531 0.30445
 C453 C 0.64021 0.72731 0.30158
 N454 N 0.63622 0.75520 0.32214
 H455 H 0.57898 0.81621 0.41263
 H456 H 0.61866 0.68296 0.28856
 C457 C 0.89797 0.75439 0.85396
 C458 C 0.89467 0.78273 0.83086
 N459 N 0.91446 0.80618 0.84028
 C460 C 0.93700 0.80294 0.87280
 C461 C 0.94017 0.77477 0.89688
 N462 N 0.92092 0.75086 0.88598
 N463 N 0.87628 0.73201 0.84742
 C464 C 0.85109 0.73696 0.81965
 C465 C 0.84758 0.76554 0.79681
 N466 N 0.86986 0.78747 0.80289
 H467 H 0.95200 0.82238 0.88014
 H468 H 0.83317 0.71946 0.81774
 C469 C 0.39009 0.23529 0.39264
 C470 C 0.38842 0.26289 0.36715
 N471 N 0.41223 0.28340 0.36923
 C472 C 0.43753 0.27782 0.39626
 C473 C 0.43921 0.25044 0.42241
 N474 N 0.41549 0.22959 0.41961
 N475 N 0.36546 0.21558 0.39220
 C476 C 0.33916 0.22234 0.36772
 C477 C 0.33744 0.24999 0.34207
 N478 N 0.36227 0.26956 0.34273
 H479 H 0.45595 0.29485 0.39792
 H480 H 0.31944 0.20680 0.36950
 C481 C 0.76399 0.90061 0.83726
 C482 C 0.74152 0.87730 0.84301
 N483 N 0.71818 0.88123 0.87405
 C484 C 0.71677 0.90705 0.90037
 C485 C 0.74042 0.92940 0.89674
 N486 N 0.76332 0.92572 0.86484
 N487 N 0.78718 0.89695 0.80607
 C488 C 0.78966 0.87054 0.78157
 C489 C 0.76870 0.84611 0.78974
 N490 N 0.74474 0.85030 0.81992
 H491 H 0.69836 0.90931 0.92566
 H492 H 0.80908 0.86778 0.75812
 C493 C 0.25856 0.39136 0.36805
 C494 C 0.23497 0.36929 0.37458
 N495 N 0.21085 0.37569 0.40333
 C496 C 0.20973 0.40277 0.42678
 C497 C 0.23442 0.42396 0.42250
 N498 N 0.25804 0.41777 0.39270
 N499 N 0.28274 0.38520 0.33955
 C500 C 0.28504 0.35750 0.31845
 C501 C 0.26267 0.33446 0.32726
 N502 N 0.23781 0.34109 0.35476
 H503 H 0.19077 0.40689 0.45055
 H504 H 0.30513 0.35281 0.29706
 C505 C 0.25039 0.10191 0.87026
 C506 C 0.22725 0.12239 0.88448
 N507 N 0.20734 0.11416 0.91868
 C508 C 0.20986 0.08641 0.94018
 C509 C 0.23457 0.06654 0.92881
 N510 N 0.25431 0.07481 0.89371
 N511 N 0.26785 0.10922 0.83248
 C512 C 0.26385 0.13655 0.80945
 C513 C 0.24281 0.15858 0.82678
 N514 N 0.22467 0.15015 0.86341
 H515 H 0.19371 0.08080 0.96774
 H516 H 0.27654 0.14058 0.77773
 C517 C 0.74470 0.60552 0.36499
 C518 C 0.71594 0.60535 0.34188
 N519 N 0.69577 0.58167 0.34880
 C520 C 0.70290 0.55822 0.37830
 C521 C 0.73160 0.55834 0.40178
 N522 N 0.75199 0.58194 0.39419
 N523 N 0.76402 0.63013 0.35999
 C524 C 0.75577 0.65471 0.33316
 C525 C 0.72700 0.65455 0.30968
 N526 N 0.70783 0.62973 0.31496
 H527 H 0.68624 0.53978 0.38363
 H528 H 0.77094 0.67462 0.33165
 C529 C 0.11181 0.74829 0.88898
 C530 C 0.12006 0.77650 0.86848
 N531 N 0.10169 0.80147 0.87427
 C532 C 0.07547 0.79975 0.90025
 C533 C 0.06679 0.77153 0.92101
 N534 N 0.08510 0.74625 0.91422
 N535 N 0.13178 0.72409 0.88603
 C536 C 0.15969 0.72697 0.86384
 C537 C 0.16781 0.75523 0.84275
 N538 N 0.14749 0.77915 0.84583
 H539 H 0.06156 0.82031 0.90448
 H540 H 0.17584 0.70787 0.86448
 C541 C 0.61771 0.23358 0.38325
 C542 C 0.61958 0.26171 0.35918
 N543 N 0.59678 0.28298 0.36419
 C544 C 0.57232 0.27767 0.39288
 C545 C 0.57051 0.24979 0.41779
 N546 N 0.59317 0.22817 0.41197
 N547 N 0.64147 0.21305 0.37976
 C548 C 0.66715 0.21956 0.35373
 C549 C 0.66913 0.24786 0.32986
 N550 N 0.64512 0.26815 0.33338
 H551 H 0.55472 0.29528 0.39682
 H552 H 0.68630 0.20339 0.35314
 C553 C 0.90939 0.23595 0.84641
 C554 C 0.88628 0.25879 0.84789
 N555 N 0.89025 0.28348 0.87574
 C556 C 0.91599 0.28608 0.90290
 C557 C 0.93830 0.26239 0.90357
 N558 N 0.93456 0.23790 0.87492
 N559 N 0.90562 0.21158 0.81789
 C560 C 0.87926 0.20838 0.79215
 C561 C 0.85488 0.22992 0.79630
 N562 N 0.85941 0.25494 0.82371
 H563 H 0.91829 0.30576 0.92539
 H564 H 0.87663 0.18829 0.77055
 C565 C 0.39301 0.74219 0.36743
 C566 C 0.36979 0.76489 0.36894
 N567 N 0.37528 0.79140 0.39224
 C568 C 0.40270 0.79592 0.41496
 C569 C 0.42526 0.77247 0.41554
 N570 N 0.41988 0.74627 0.39130
 N571 N 0.38774 0.71578 0.34401
 C572 C 0.35995 0.71064 0.32292
 C573 C 0.33596 0.73256 0.32630
 N574 N 0.34164 0.75937 0.34909
 H575 H 0.40618 0.81691 0.43425
 H576 H 0.35618 0.68912 0.30508
 C577 C 0.23845 0.89393 0.15184
 C578 C 0.26053 0.87104 0.14214
 N579 N 0.28309 0.87692 0.11029
 C580 C 0.28401 0.90428 0.08683
 C581 C 0.26063 0.92632 0.09440
 N582 N 0.23866 0.92062 0.12723
 N583 N 0.21581 0.88831 0.18339
 C584 C 0.21349 0.86042 0.20461
 C585 C 0.23413 0.83663 0.19277
 N586 N 0.25756 0.84267 0.16213
 H587 H 0.30160 0.90800 0.06060
 H588 H 0.19453 0.85620 0.22850
 C589 C 0.75051 0.39934 0.64926
 C590 C 0.77051 0.37531 0.63643
 N591 N 0.79024 0.37954 0.60024
 C592 C 0.79015 0.40634 0.57543
 C593 C 0.76847 0.42943 0.58617
 N594 N 0.74947 0.42545 0.62332
 N595 N 0.73075 0.39531 0.68528
 C596 C 0.72911 0.36788 0.70795
 C597 C 0.74719 0.34289 0.69288
 N598 N 0.76796 0.34740 0.65784
 H599 H 0.80533 0.40873 0.54576
 H600 H 0.71230 0.36492 0.73551
 C601 C 0.73857 0.11170 0.10241
 C602 C 0.76654 0.11578 0.12685
 N603 N 0.78778 0.09270 0.12832
 C604 C 0.78266 0.06588 0.10562
 C605 C 0.75515 0.06199 0.07973
 N606 N 0.73356 0.08501 0.07922
 N607 N 0.71770 0.13518 0.10013
 C608 C 0.72371 0.16264 0.12079
 C609 C 0.75195 0.16690 0.14463
 N610 N 0.77268 0.14325 0.14695
 H611 H 0.80037 0.04818 0.10663
 H612 H 0.70708 0.18125 0.11758
 C613 C 0.24193 0.60705 0.62988
 C614 C 0.26929 0.60799 0.65649
 N615 N 0.28934 0.58391 0.65566
 C616 C 0.28357 0.55901 0.62884
 C617 C 0.25645 0.55807 0.60153
 N618 N 0.23605 0.58208 0.60309
 N619 N 0.22274 0.63191 0.62910
 C620 C 0.22981 0.65776 0.65339
 C621 C 0.25726 0.65877 0.68005
 N622 N 0.27629 0.63371 0.68066
 H623 H 0.30023 0.54034 0.62830
 H624 H 0.21480 0.67769 0.65055
 C625 C 0.87214 0.74516 0.10242
 C626 C 0.86489 0.77133 0.12841
 N627 N 0.88575 0.79471 0.13138
 C628 C 0.91346 0.79342 0.10887
 C629 C 0.92070 0.76757 0.08197
 N630 N 0.89989 0.74381 0.07979
 N631 N 0.85055 0.72241 0.09804
 C632 C 0.82193 0.72481 0.11807
 C633 C 0.81455 0.75116 0.14383
 N634 N 0.83640 0.77374 0.14817
 H635 H 0.92944 0.81266 0.11132
 H636 H 0.80475 0.70694 0.11253
 C637 C 0.41356 0.25515 0.66926
 C638 C 0.38883 0.23431 0.66350
 N639 N 0.39159 0.21126 0.63225
 C640 C 0.41756 0.20873 0.60551
 C641 C 0.44134 0.23091 0.60907
 N642 N 0.43886 0.25331 0.64146
 N643 N 0.41091 0.27833 0.70009
 C644 C 0.38414 0.28243 0.72418
 C645 C 0.35839 0.26309 0.71601
 N646 N 0.36161 0.23903 0.68636
 H647 H 0.41874 0.19078 0.57983
 H648 H 0.38226 0.30177 0.74738
 C649 C 0.10303 0.24179 0.14585
 C650 C 0.12626 0.26439 0.14083
 N651 N 0.12073 0.28929 0.11332
 C652 C 0.09340 0.29221 0.08970
 C653 C 0.07077 0.26873 0.09262
 N654 N 0.07615 0.24422 0.12121
 N655 N 0.10848 0.21679 0.17304
 C656 C 0.13641 0.21288 0.19444
 C657 C 0.16045 0.23456 0.18758
 N658 N 0.15460 0.26009 0.16116
 H659 H 0.09009 0.31188 0.06701
 H660 H 0.14038 0.19230 0.21498
 C661 C 0.60566 0.74822 0.62788
 C662 C 0.62776 0.77189 0.62288
 N663 N 0.61983 0.79810 0.59981
 C664 C 0.59106 0.80138 0.58049
 C665 C 0.56954 0.77694 0.58319
 N666 N 0.57738 0.75106 0.60734
 N667 N 0.61340 0.72205 0.65099
 C668 C 0.64253 0.71809 0.66839
 C669 C 0.66534 0.74101 0.66139
 N670 N 0.65722 0.76757 0.63900
 H671 H 0.58569 0.82212 0.56110
 H672 H 0.64821 0.69677 0.68610
   
