data_POSCAR
  _audit_creation_date              2014-09-24
  _audit_creation_method            'ToBaCCo'
  _symmetry_space_group_name_H-M    'P1'
  _symmetry_Int_Tables_number       1
  _symmetry_cell_setting            triclinic
  loop_
  _symmetry_equiv_pos_as_xyz
 x,y,z
_cell_length_a 17.1145
_cell_length_b 17.5333
_cell_length_c 16.4727
_cell_angle_alpha 87.158600
_cell_angle_beta 88.368100
_cell_angle_gamma 89.692900
loop_
  _atom_site_label
  _atom_site_type_symbol
  _atom_site_fract_x
  _atom_site_fract_y
  _atom_site_fract_z
N1 N 0.23434 0.22717 0.20174
 N2 N -0.19494 0.79544 0.22810
 N3 N -0.17390 0.19329 -0.18685
 N4 N 0.20824 0.80415 -0.16903
 N5 N 0.18853 1.20964 0.77686
 N6 N 0.77697 0.78425 0.78906
 N7 N 0.17719 0.79186 1.17987
 N8 N 0.79016 1.19606 1.18015
 O9 O 0.57285 0.96557 0.84000
 O10 O 0.42811 0.88542 1.10206
 O11 O 0.68844 0.93888 1.06524
 O12 O 0.36292 0.92925 0.94777
 O13 O 0.57369 0.88699 1.10412
 O14 O 0.42563 0.96910 0.83970
 O15 O 0.32977 0.96035 1.08328
 O16 O 0.61841 0.90009 0.94591
 C17 C 0.61205 0.90900 0.87004
 C18 C 0.35552 0.89564 1.10619
 C19 C 0.64781 0.89020 1.11185
 C20 C 0.37633 0.92497 0.87408
 O21 O 0.42192 1.11292 0.89236
 O22 O 0.56774 1.02865 1.16549
 O23 O 0.66607 1.03801 0.92517
 O24 O 0.38482 1.09909 1.05848
 O25 O 0.42341 1.02865 1.16238
 O26 O 0.57051 1.11189 0.88693
 O27 O 0.30917 1.06192 0.93850
 O28 O 0.63210 1.06986 1.06027
 Co29 Co 0.49788 1.03676 0.87599
 Co30 Co 0.49771 0.96045 1.12371
 Co31 Co 0.61478 0.98454 1.00744
 Co32 Co 0.38171 1.01461 1.00008
 O33 O 0.49799 1.00042 1.00165
 C34 C 0.34696 1.11037 0.88945
 C35 C 0.61980 1.07200 1.13416
 C36 C 0.64228 1.09970 0.89232
 C37 C 0.39008 1.08861 1.13380
 O38 O 0.03360 0.41381 0.16545
 O39 O 0.07305 0.57191 -0.15154
 O40 O 0.11320 0.38579 -0.07664
 O41 O 0.09140 0.61592 0.04549
 O42 O 0.05034 0.43460 -0.17578
 O43 O 0.06019 0.55424 0.15590
 O44 O 0.02617 0.66021 -0.07663
 O45 O 0.10976 0.39281 0.06674
 C46 C 0.09565 0.38587 0.14023
 C47 C 0.07412 0.63895 -0.13006
 C48 C 0.10093 0.38930 -0.15043
 C49 C 0.10024 0.60564 0.11979
 O50 O -0.09022 0.57647 0.12197
 O51 O -0.09481 0.44592 -0.14716
 O52 O -0.04459 0.34343 0.07196
 O53 O -0.11136 0.60847 -0.01756
 O54 O -0.08086 0.59131 -0.14135
 O55 O -0.10884 0.43985 0.11800
 O56 O -0.03582 0.68372 0.07447
 O57 O -0.03993 0.34903 -0.07705
 Co58 Co -0.02264 0.49609 0.12657
 Co59 Co -0.01167 0.51063 -0.13919
 Co60 Co 0.03206 0.37785 -0.00268
 Co61 Co -0.00883 0.60536 0.01400
 O62 O 0.00154 0.49400 -0.00611
 C63 C -0.07694 0.64636 0.13210
 C64 C -0.09073 0.37566 -0.12630
 C65 C -0.10395 0.37008 0.10834
 C66 C -0.12566 0.62039 -0.09020
 O67 O 1.16156 0.04236 0.41244
 O68 O 0.87733 0.09382 0.55636
 O69 O 0.92812 0.10437 0.36310
 O70 O 1.05402 0.09797 0.60762
 O71 O 0.83386 0.04689 0.42248
 O72 O 1.15850 0.05403 0.55966
 O73 O 0.93885 0.04693 0.66034
 O74 O 1.06755 0.09104 0.34088
 C75 C 1.13761 0.08893 0.35896
 C76 C 0.89356 0.09677 0.62950
 C77 C 0.85679 0.09464 0.36983
 C78 C 1.12563 0.10268 0.60125
 O79 O 1.11748 -0.09251 0.58076
 O80 O 0.86227 -0.08976 0.47056
 O81 O 1.05719 -0.05969 0.32708
 O82 O 0.98015 -0.09843 0.61676
 O83 O 0.86745 -0.05259 0.61112
 O84 O 1.12589 -0.10257 0.43020
 O85 O 1.07939 -0.03040 0.68939
 O86 O 0.91215 -0.05094 0.35067
 Co87 Co 1.12664 -0.02170 0.49516
 Co88 Co 0.87470 0.00143 0.51341
 Co89 Co 0.99153 0.01971 0.35798
 Co90 Co 1.01899 -0.00004 0.60564
 O91 O 0.99965 0.00446 0.48790
 C92 C 1.12553 -0.08155 0.65611
 C93 C 0.87143 -0.09754 0.39578
 C94 C 1.10630 -0.10629 0.35776
 C95 C 0.91036 -0.10523 0.63596
 C96 C 1.17894 0.17754 0.24568
 C97 C 1.19414 0.14203 0.31726
 H98 H 1.12228 0.16992 0.21939
 H99 H 1.24972 0.15053 0.34507
 C100 C 0.85656 -0.18132 0.28830
 C101 C 0.82847 -0.15622 0.35771
 H102 H 0.91755 -0.17198 0.27076
 H103 H 0.76858 -0.16764 0.37753
 C104 C 0.87852 0.16492 0.75317
 C105 C 0.85226 0.15009 0.68058
 H106 H 0.93662 0.14686 0.77083
 H107 H 0.79513 0.17065 0.66270
 C108 C 1.16600 -0.13908 0.78517
 C109 C 1.17180 -0.13560 0.70484
 H110 H 1.12748 -0.10079 0.81725
 H111 H 1.20908 -0.17591 0.67416
 C112 C 0.29845 1.19313 1.15740
 C113 C 0.34394 1.13699 1.18822
 H114 H 0.30636 1.21002 1.09343
 H115 H 0.34052 1.12002 1.25204
 C116 C 0.27756 0.82760 0.86861
 C117 C 0.32926 0.87373 0.82859
 H118 H 0.28271 0.81519 0.93346
 H119 H 0.32672 0.88371 0.76332
 C120 C 0.75041 0.85137 1.19949
 C121 C 0.68818 0.83169 1.15952
 H122 H 0.76395 0.91142 1.20460
 H123 H 0.67074 0.77253 1.15755
 C124 C 0.77277 1.13912 0.84964
 C125 C 0.69792 1.15716 0.86049
 H126 H 0.79310 1.08119 0.86271
 H127 H 0.67722 1.21385 0.84249
 C128 C 0.20406 0.29655 0.16330
 C129 C 0.14164 0.33353 0.19292
 H130 H 0.22827 0.31583 0.10425
 H131 H 0.11779 0.31766 0.25297
 C132 C -0.14477 0.24959 -0.13691
 C133 C -0.14159 0.32217 -0.16418
 H134 H -0.11813 0.23100 -0.08032
 H135 H -0.17007 0.34002 -0.21994
 C136 C 0.16151 0.74673 -0.12789
 C137 C 0.12893 0.69298 -0.16966
 H138 H 0.15052 0.74899 -0.06297
 H139 H 0.14397 0.68820 -0.23356
 C140 C -0.16322 0.74600 0.16964
 C141 C -0.12071 0.68609 0.19270
 H142 H -0.17010 0.76049 0.10531
 H143 H -0.11704 0.66743 0.25616
 C144 C 1.14278 0.19402 0.71196
 C145 C 1.17110 0.14830 0.64937
 H146 H 1.08408 0.21715 0.70803
 H147 H 1.23369 0.13836 0.64585
 C148 C 0.80550 -0.16827 0.71991
 C149 C 0.88132 -0.16555 0.69504
 H150 H 0.76609 -0.12676 0.69233
 H151 H 0.92418 -0.20309 0.72318
 C152 C 1.12211 -0.18972 0.23798
 C153 C 1.14574 -0.16017 0.31115
 H154 H 1.06068 -0.20005 0.22890
 H155 H 1.20298 -0.17797 0.33169
 C156 C 0.82146 0.18414 0.25627
 C157 C 0.80353 0.12429 0.31284
 H158 H 0.87261 0.21707 0.27030
 H159 H 0.74860 0.09514 0.31208
 C160 C 0.17696 0.27325 -0.17825
 C161 C 0.13340 0.33732 -0.20421
 H162 H 0.20032 0.27362 -0.11765
 H163 H 0.11556 0.34245 -0.26682
 C164 C -0.16923 0.24604 0.12860
 C165 C -0.15910 0.32195 0.14757
 H166 H -0.15201 0.22989 0.06788
 H167 H -0.19556 0.34442 0.19580
 C168 C -0.18212 0.71360 -0.18924
 C169 C -0.18476 0.67850 -0.11456
 H170 H -0.14255 0.69052 -0.23439
 H171 H -0.22286 0.69899 -0.06696
 C172 C 0.17058 0.72823 0.13454
 C173 C 0.13815 0.65902 0.16638
 H174 H 0.19371 0.72989 0.07256
 H175 H 0.13031 0.65207 0.23186
 C176 C 0.23536 1.15254 0.80884
 C177 C 0.30670 1.16689 0.84475
 H178 H 0.22014 1.09332 0.80104
 H179 H 0.33519 1.22108 0.83010
 C180 C 0.22834 0.84888 1.15560
 C181 C 0.30523 0.83536 1.12945
 H182 H 0.21300 0.90756 1.16789
 H183 H 0.32824 0.77765 1.13364
 C184 C 0.73629 1.15134 1.14411
 C185 C 0.66753 1.11798 1.18035
 H186 H 0.74104 1.14907 1.07833
 H187 H 0.65103 1.12576 1.24308
 C188 C 0.71843 0.81668 0.84293
 C189 C 0.65795 0.85962 0.81570
 H190 H 0.72781 0.81259 0.90766
 H191 H 0.64693 0.86500 0.75133
   
