data_POSCAR
  _audit_creation_date              2014-09-24
  _audit_creation_method            'ToBaCCo'
  _symmetry_space_group_name_H-M    'P1'
  _symmetry_Int_Tables_number       1
  _symmetry_cell_setting            triclinic
  loop_
  _symmetry_equiv_pos_as_xyz
 x,y,z
_cell_length_a 35.7485
_cell_length_b 35.8653
_cell_length_c 35.8521
_cell_angle_alpha 119.248600
_cell_angle_beta 60.943000
_cell_angle_gamma 61.686900
loop_
  _atom_site_label
  _atom_site_type_symbol
  _atom_site_fract_x
  _atom_site_fract_y
  _atom_site_fract_z
C1 C 0.49848 0.50187 0.02183
 C2 C 0.50432 0.49629 -0.02202
 C3 C 0.46996 0.48940 -0.03051
 C4 C 0.53737 0.50439 -0.05625
 C5 C 0.50926 0.53200 0.05378
 C6 C 0.48635 0.47238 0.03485
 C7 C 0.53950 0.41106 -0.13285
 C8 C 0.50730 0.40477 -0.14074
 C9 C 0.40540 0.47652 -0.04650
 C10 C 0.33480 0.55586 0.05630
 C11 C 0.36651 0.56260 0.06439
 C12 C 0.63162 0.44371 -0.12090
 C13 C 0.65186 0.46332 -0.14010
 C14 C 0.58177 0.53950 -0.09977
 C15 C 0.49383 0.59327 -0.04325
 C16 C 0.47211 0.57558 -0.02212
 C17 C 0.44827 0.62650 0.11962
 C18 C 0.46966 0.64477 0.13743
 C19 C 0.54876 0.57165 0.09353
 C20 C 0.60370 0.48264 0.03488
 C21 C 0.58355 0.46346 0.01588
 C22 C 0.40719 0.54360 0.13832
 C23 C 0.39537 0.51657 0.15098
 C24 C 0.46184 0.41866 0.06085
 C25 C 0.54176 0.34650 -0.04287
 C26 C 0.55455 0.37256 -0.05621
 H27 H 0.61904 0.35433 -0.20681
 H28 H 0.56198 0.34393 -0.22029
 H29 H 0.25505 0.61281 0.13058
 H30 H 0.31038 0.62466 0.14484
 H31 H 0.68698 0.38434 -0.15299
 H32 H 0.72079 0.42054 -0.18471
 H33 H 0.40198 0.62020 0.02369
 H34 H 0.38743 0.68342 0.15352
 H35 H 0.42635 0.71421 0.18328
 H36 H 0.66456 0.42595 0.00116
 H37 H 0.62872 0.39275 -0.03133
 H38 H 0.35392 0.62061 0.20964
 H39 H 0.33443 0.57194 0.23089
 H40 H 0.59442 0.26984 -0.11368
 H41 H 0.61717 0.31502 -0.13753
 H42 H 0.43993 0.65132 -0.01288
 C43 C 0.02906 0.49186 0.49275
 C44 C -0.01082 0.49300 0.49455
 C45 C -0.02543 0.46517 0.50840
 C46 C -0.03982 0.51938 0.48068
 C47 C 0.06234 0.50100 0.46070
 C48 C 0.03158 0.49141 0.53303
 C49 C 0.06326 0.36757 0.44223
 C50 C 0.04952 0.34156 0.45479
 C51 C -0.05171 0.41097 0.53161
 C52 C -0.13916 0.50635 0.59566
 C53 C -0.12686 0.53422 0.58523
 C54 C -0.00478 0.45161 0.40862
 C55 C -0.02868 0.47296 0.39245
 C56 C -0.08734 0.56182 0.44735
 C57 C -0.12579 0.63219 0.52191
 C58 C -0.10431 0.61272 0.54038
 C59 C 0.02335 0.57723 0.53030
 C60 C 0.04360 0.59567 0.50910
 C61 C 0.10416 0.53751 0.41733
 C62 C 0.14823 0.45734 0.34390
 C63 C 0.12966 0.43728 0.36379
 C64 C -0.06690 0.56943 0.64000
 C65 C -0.06505 0.56974 0.67807
 C66 C 0.03478 0.49279 0.61053
 C67 C 0.13315 0.41522 0.50441
 C68 C 0.13149 0.41471 0.46594
 H69 H 0.14338 0.31126 0.38068
 H70 H 0.11831 0.26677 0.40392
 H71 H -0.21661 0.55893 0.65342
 H72 H -0.19644 0.60958 0.63698
 H73 H 0.04273 0.38072 0.36317
 H74 H 0.00087 0.41841 0.33503
 H75 H -0.13517 0.66853 0.59855
 H76 H -0.02607 0.62557 0.60369
 H77 H 0.00972 0.65738 0.56608
 H78 H 0.19551 0.41156 0.27235
 H79 H 0.16407 0.37533 0.30623
 H80 H -0.14533 0.62986 0.69405
 H81 H -0.14158 0.63002 0.76026
 H82 H 0.21090 0.35526 0.45156
 H83 H 0.20832 0.35396 0.38348
 H84 H -0.17056 0.70070 0.56413
 C85 C 0.49204 0.02768 0.50678
 C86 C 0.49190 -0.01044 0.50713
 C87 C 0.51518 -0.03561 0.52465
 C88 C 0.46442 -0.02586 0.49318
 C89 C 0.49060 0.02995 0.46678
 C90 C 0.50299 0.05990 0.53655
 C91 C 0.60878 -0.10053 0.46505
 C92 C 0.62696 -0.12085 0.48483
 C93 C 0.55456 -0.08023 0.56121
 C94 C 0.46432 -0.01966 0.61726
 C95 C 0.44482 0.00240 0.59919
 C96 C 0.53526 -0.12829 0.41492
 C97 C 0.50835 -0.14186 0.40360
 C98 C 0.41097 -0.05373 0.46966
 C99 C 0.33977 0.04853 0.54799
 C100 C 0.36580 0.06273 0.56021
 C101 C 0.41305 0.12990 0.53413
 C102 C 0.41200 0.13200 0.49661
 C103 C 0.48876 0.03410 0.39120
 C104 C 0.56647 -0.06575 0.32345
 C105 C 0.56795 -0.06822 0.36041
 C106 C 0.43874 0.12940 0.63434
 C107 C 0.45934 0.14847 0.65299
 C108 C 0.54212 0.10096 0.57607
 C109 C 0.60127 0.03763 0.48291
 C110 C 0.58082 0.01859 0.46428
 H111 H 0.66657 -0.13370 0.40494
 H112 H 0.69656 -0.16701 0.44156
 H113 H 0.40761 0.01221 0.67650
 H114 H 0.37351 0.05048 0.64479
 H115 H 0.61149 -0.19779 0.36246
 H116 H 0.56310 -0.22070 0.34375
 H117 H 0.30883 0.14306 0.62202
 H118 H 0.35282 0.20650 0.61611
 H119 H 0.35132 0.20988 0.54978
 H120 H 0.62608 -0.14190 0.24185
 H121 H 0.62910 -0.14675 0.30607
 H122 H 0.37535 0.16590 0.69412
 H123 H 0.41215 0.19850 0.72613
 H124 H 0.66529 0.00062 0.42279
 H125 H 0.62914 -0.03193 0.39053
 H126 H 0.26374 0.11763 0.60007
 O127 O 0.43849 0.03173 -0.00970
 O128 O 0.39585 0.10158 0.14375
 O129 O 0.38908 0.14862 0.10581
 O130 O 0.44845 -0.01720 0.02621
 O131 O 0.64051 -0.18185 -0.14286
 O132 O 0.58095 -0.01628 -0.06340
 O133 O 0.58796 -0.06312 -0.02585
 O134 O 0.63030 -0.13291 -0.17842
 Cu135 Cu 0.39917 0.08229 0.08281
 Cu136 Cu 0.62757 -0.11333 -0.11811
 C137 C 0.54115 -0.06141 -0.11938
 C138 C 0.48634 0.02828 0.08296
 C139 C 0.47610 0.09300 0.03306
 C140 C 0.55360 -0.12630 -0.06964
 O141 O -0.17500 0.63466 1.13725
 O142 O -0.01881 0.58683 1.06688
 O143 O -0.06449 0.59151 1.02805
 O144 O -0.13033 0.63087 1.17737
 O145 O 0.03846 0.43803 1.00616
 O146 O 0.10408 0.39838 0.85593
 O147 O 0.15016 0.39389 0.89502
 O148 O -0.00633 0.44159 0.96583
 Cu149 Cu -0.11217 0.62845 1.11786
 Cu150 Cu 0.08806 0.39909 0.91419
 C151 C -0.11604 0.54542 1.06162
 C152 C 0.09101 0.48326 0.97059
 C153 C 0.02833 0.48988 0.91847
 C154 C -0.05593 0.54070 1.11648
 O155 O 0.11960 -0.16430 0.37409
 O156 O 0.04389 -0.00213 0.43053
 O157 O 0.16037 -0.11972 0.37818
 O158 O -0.00089 -0.04242 0.43129
 O159 O -0.16636 0.12231 0.62400
 O160 O -0.00469 0.04415 0.57033
 O161 O -0.12098 0.16214 0.62275
 O162 O -0.04602 0.00012 0.56671
 Cu163 Cu 0.09665 -0.09781 0.38498
 Cu164 Cu -0.10008 0.09779 0.61436
 C165 C 0.04806 -0.10869 0.46152
 C166 C -0.04973 0.10631 0.53516
 C167 C 0.10406 -0.04925 0.46617
 C168 C -0.11017 0.05176 0.53604
 C169 C -0.26371 0.57825 1.09949
 C170 C -0.31037 0.62626 1.10907
 C171 C -0.35201 0.62853 1.11072
 C172 C -0.34973 0.58579 1.10607
 C173 C -0.30160 0.53634 1.09488
 C174 C -0.25755 0.53166 1.09057
 C175 C -0.20584 0.47786 1.07491
 C176 C -0.19707 0.42923 1.06291
 C177 C -0.24114 0.43479 1.06823
 C178 C -0.29364 0.48834 1.08485
 C179 C -0.39299 0.67165 1.11460
 C180 C -0.39319 0.71176 1.11712
 C181 C -0.35497 0.71206 1.11818
 C182 C -0.31409 0.67005 1.11439
 C183 C -0.39114 0.58691 1.10663
 C184 C -0.42156 0.58329 1.10343
 C185 C -0.21515 0.56993 1.09110
 C186 C -0.17193 0.56047 1.08045
 H187 H -0.17047 0.47158 1.07040
 H188 H -0.15569 0.38687 1.04924
 H189 H -0.23420 0.39697 1.05895
 H190 H -0.32659 0.49044 1.08838
 H191 H -0.42522 0.67480 1.11566
 H192 H -0.42409 0.74356 1.11918
 H193 H -0.35611 0.74413 1.12102
 H194 H -0.28432 0.67111 1.11436
 C195 C 0.23067 0.46007 0.93920
 C196 C 0.23800 0.45375 0.97200
 C197 C 0.27581 0.45614 0.97353
 C198 C 0.30747 0.46327 0.94074
 C199 C 0.29699 0.47290 0.91119
 C200 C 0.25819 0.47154 0.91066
 C201 C 0.24500 0.48473 0.88425
 C202 C 0.26835 0.50009 0.86026
 C203 C 0.30639 0.50136 0.86072
 C204 C 0.32142 0.48723 0.88511
 C205 C 0.27818 0.45430 1.01099
 C206 C 0.24355 0.45078 1.04648
 C207 C 0.20763 0.44728 1.04389
 C208 C 0.20534 0.44805 1.00653
 C209 C 0.34601 0.46567 0.94229
 C210 C 0.37578 0.46979 0.94620
 C211 C 0.18687 0.46304 0.94312
 C212 C 0.14622 0.46933 0.95166
 H213 H 0.21476 0.48521 0.88373
 H214 H 0.25590 0.51204 0.84219
 H215 H 0.32341 0.51436 0.84307
 H216 H 0.35039 0.48968 0.88527
 H217 H 0.30474 0.45765 1.01527
 H218 H 0.24392 0.45150 1.07683
 H219 H 0.18046 0.44490 1.07187
 H220 H 0.17623 0.44573 1.00657
 C221 C 0.10150 -0.27006 0.41389
 C222 C 0.12263 -0.29006 0.43280
 C223 C 0.13267 -0.33893 0.42339
 C224 C 0.12131 -0.36739 0.39530
 C225 C 0.10146 -0.34860 0.37509
 C226 C 0.09087 -0.29920 0.38505
 C227 C 0.06749 -0.27797 0.36794
 C228 C 0.05548 -0.30524 0.34123
 C229 C 0.06739 -0.35494 0.32997
 C230 C 0.08986 -0.37633 0.34686
 C231 C 0.15176 -0.35615 0.44474
 C232 C 0.15973 -0.32510 0.47547
 C233 C 0.14959 -0.27705 0.48498
 C234 C 0.13170 -0.25995 0.46355
 C235 C 0.12110 -0.40734 0.39628
 C236 C 0.11610 -0.43539 0.40275
 C237 C 0.08609 -0.21537 0.42854
 C238 C 0.07064 -0.16797 0.44250
 H239 H 0.05777 -0.23971 0.37547
 H240 H 0.03703 -0.28791 0.32900
 H241 H 0.05939 -0.37723 0.30784
 H242 H 0.09807 -0.41481 0.33751
 H243 H 0.16032 -0.39333 0.43837
 H244 H 0.17359 -0.33820 0.49223
 H245 H 0.15542 -0.25268 0.50930
 H246 H 0.12447 -0.22237 0.47195
 C247 C -0.08489 0.25019 0.56438
 C248 C -0.09996 0.26451 0.53949
 C249 C -0.09727 0.30134 0.53644
 C250 C -0.07772 0.32180 0.55650
 C251 C -0.05929 0.30421 0.57803
 C252 C -0.06496 0.27030 0.58407
 C253 C -0.04793 0.25487 0.60743
 C254 C -0.02351 0.27008 0.62186
 C255 C -0.01519 0.30052 0.61312
 C256 C -0.03323 0.31795 0.59193
 C257 C -0.11155 0.31416 0.51040
 C258 C -0.12695 0.29018 0.48694
 C259 C -0.12876 0.25335 0.48912
 C260 C -0.11568 0.24071 0.51525
 C261 C -0.07207 0.35658 0.55056
 C262 C -0.06450 0.38291 0.54328
 C263 C -0.08030 0.20569 0.56032
 C264 C -0.07043 0.16360 0.55206
 H265 H -0.05280 0.23047 0.61430
 H266 H -0.01054 0.25774 0.63947
 H267 H 0.00412 0.31195 0.62407
 H268 H -0.02746 0.34317 0.58754
 H269 H -0.10986 0.34170 0.50678
 H270 H -0.13708 0.29978 0.46651
 H271 H -0.14023 0.23432 0.47033
 H272 H -0.11725 0.21141 0.51547
 C273 C 0.57663 -0.10609 -0.27127
 C274 C 0.59987 -0.08921 -0.29364
 C275 C 0.59914 -0.08800 -0.33233
 C276 C 0.57929 -0.10778 -0.35247
 C277 C 0.55878 -0.12741 -0.33276
 C278 C 0.55662 -0.12572 -0.29121
 C279 C 0.53238 -0.14193 -0.26864
 C280 C 0.51013 -0.15863 -0.28591
 C281 C 0.51304 -0.16110 -0.32729
 C282 C 0.53760 -0.14628 -0.35115
 C283 C 0.61728 -0.06563 -0.34887
 C284 C 0.63794 -0.04741 -0.33005
 C285 C 0.64149 -0.05135 -0.29500
 C286 C 0.62225 -0.07150 -0.27638
 C287 C 0.57478 -0.10257 -0.38822
 C288 C 0.56758 -0.09437 -0.41427
 C289 C 0.56597 -0.09535 -0.22050
 C290 C 0.55530 -0.08209 -0.17552
 H291 H 0.52958 -0.14106 -0.23673
 H292 H 0.49025 -0.16943 -0.26680
 H293 H 0.49560 -0.17401 -0.34045
 H294 H 0.53889 -0.14886 -0.38319
 H295 H 0.61731 -0.06353 -0.37799
 H296 H 0.65308 -0.03198 -0.34453
 H297 H 0.65889 -0.03837 -0.28182
 H298 H 0.62512 -0.07296 -0.24833
 C299 C 0.48316 0.03950 0.20342
 C300 C 0.48917 0.07321 0.23639
 C301 C 0.49447 0.06851 0.27114
 C302 C 0.49306 0.03076 0.27329
 C303 C 0.49330 -0.00882 0.23433
 C304 C 0.48779 -0.00395 0.19977
 C305 C 0.48787 -0.04378 0.16137
 C306 C 0.49365 -0.08751 0.15687
 C307 C 0.50013 -0.09325 0.18962
 C308 C 0.49996 -0.05447 0.22802
 C309 C 0.50267 0.10051 0.30162
 C310 C 0.50585 0.13586 0.29759
 C311 C 0.49999 0.14109 0.26425
 C312 C 0.49133 0.11060 0.23428
 C313 C 0.49061 0.03332 0.31621
 C314 C 0.48877 0.03495 0.35151
 C315 C 0.47748 0.04434 0.16812
 C316 C 0.47740 0.04226 0.13361
 H317 H 0.48406 -0.04217 0.13388
 H318 H 0.49355 -0.11753 0.12738
 H319 H 0.50540 -0.12799 0.18518
 H320 H 0.50627 -0.06178 0.25148
 H321 H 0.50867 0.09667 0.32693
 H322 H 0.51378 0.15848 0.31961
 H323 H 0.50310 0.16803 0.26067
 H324 H 0.48777 0.11533 0.20817
 C325 C 0.59420 -0.27972 -0.11277
 C326 C 0.64131 -0.32486 -0.12101
 C327 C 0.64180 -0.36437 -0.12029
 C328 C 0.60022 -0.36358 -0.11681
 C329 C 0.55359 -0.31893 -0.10910
 C330 C 0.54936 -0.27567 -0.10572
 C331 C 0.49825 -0.22735 -0.09344
 C332 C 0.45258 -0.22189 -0.08472
 C333 C 0.45794 -0.26540 -0.08938
 C334 C 0.50814 -0.31386 -0.10187
 C335 C 0.68237 -0.40211 -0.12104
 C336 C 0.72279 -0.40228 -0.12399
 C337 C 0.72648 -0.36784 -0.12917
 C338 C 0.68626 -0.32943 -0.12768
 C339 C 0.60018 -0.40354 -0.11574
 C340 C 0.59539 -0.43270 -0.11131
 C341 C 0.58413 -0.22983 -0.10303
 C342 C 0.57243 -0.18500 -0.09093
 H343 H 0.49230 -0.19263 -0.08967
 H344 H 0.41283 -0.18368 -0.07428
 H345 H 0.42259 -0.26120 -0.08285
 H346 H 0.50991 -0.34624 -0.10472
 H347 H 0.68369 -0.43222 -0.11978
 H348 H 0.75263 -0.43065 -0.12363
 H349 H 0.75923 -0.36941 -0.13282
 H350 H 0.68985 -0.30248 -0.13077
 C351 C 0.44138 0.24335 0.07639
 C352 C 0.42569 0.26007 0.05301
 C353 C 0.42528 0.30073 0.05482
 C354 C 0.43970 0.32521 0.08086
 C355 C 0.45692 0.30704 0.10270
 C356 C 0.45772 0.26600 0.10050
 C357 C 0.47788 0.24574 0.11977
 C358 C 0.49764 0.26463 0.13974
 C359 C 0.49704 0.30462 0.14172
 C360 C 0.47658 0.32609 0.12385
 C361 C 0.41329 0.31314 0.02738
 C362 C 0.40251 0.28567 -0.00149
 C363 C 0.40237 0.24641 -0.00273
 C364 C 0.41323 0.23412 0.02467
 C365 C 0.44330 0.36283 0.07871
 C366 C 0.44973 0.39051 0.07303
 C367 C 0.44849 0.19546 0.06774
 C368 C 0.45808 0.15173 0.05573
 H369 H 0.48018 0.21364 0.11802
 H370 H 0.51458 0.24709 0.15264
 H371 H 0.51357 0.31807 0.15612
 H372 H 0.47806 0.35607 0.12509
 H373 H 0.41387 0.34246 0.02622
 H374 H 0.39524 0.29395 -0.02399
 H375 H 0.39496 0.22423 -0.02617
 H376 H 0.41320 0.20272 0.02194
 C377 C -0.26833 0.10249 0.57896
 C378 C -0.29622 0.13095 0.56795
 C379 C -0.34298 0.13816 0.57532
 C380 C -0.36151 0.11676 0.59356
 C381 C -0.33291 0.08763 0.60387
 C382 C -0.28633 0.08059 0.59666
 C383 C -0.25590 0.04864 0.60452
 C384 C -0.26953 0.02283 0.61745
 C385 C -0.31481 0.02954 0.62425
 C386 C -0.34699 0.06219 0.61835
 C387 C -0.36740 0.16390 0.56110
 C388 C -0.34515 0.18079 0.53901
 C389 C -0.29950 0.17376 0.53185
 C390 C -0.27572 0.14975 0.54670
 C391 C -0.40177 0.11635 0.59306
 C392 C -0.43067 0.11157 0.58780
 C393 C -0.21532 0.08936 0.56598
 C394 C -0.16887 0.07468 0.55352
 H395 H -0.22009 0.04195 0.59948
 H396 H -0.24435 -0.00298 0.62171
 H397 H -0.32463 0.00890 0.63368
 H398 H -0.38170 0.06597 0.62394
 H399 H -0.40275 0.17005 0.56568
 H400 H -0.36289 0.19884 0.52678
 H401 H -0.28179 0.18635 0.51404
 H402 H -0.23995 0.14481 0.54006
 C403 C 0.25011 -0.08755 0.43629
 C404 C 0.26372 -0.10191 0.46189
 C405 C 0.30102 -0.09969 0.46473
 C406 C 0.32313 -0.08177 0.44328
 C407 C 0.30695 -0.06475 0.42031
 C408 C 0.27187 -0.06923 0.41521
 C409 C 0.25642 -0.05211 0.39192
 C410 C 0.27338 -0.02943 0.37597
 C411 C 0.30584 -0.02317 0.38287
 C412 C 0.32293 -0.04094 0.40436
 C413 C 0.31245 -0.11260 0.49215
 C414 C 0.28618 -0.12569 0.51766
 C415 C 0.24895 -0.12708 0.51565
 C416 C 0.23808 -0.11578 0.48772
 C417 C 0.35733 -0.07545 0.45005
 C418 C 0.38325 -0.06726 0.45779
 C419 C 0.20418 -0.08146 0.44148
 C420 C 0.16134 -0.07055 0.45006
 H421 H 0.23055 -0.05546 0.38635
 H422 H 0.26085 -0.01623 0.35858
 H423 H 0.31890 -0.00550 0.37046
 H424 H 0.34935 -0.03638 0.40772
 H425 H 0.34060 -0.11153 0.49533
 H426 H 0.29445 -0.13446 0.53943
 H427 H 0.22822 -0.13683 0.53598
 H428 H 0.20854 -0.11709 0.48755
 C429 C -0.09812 0.57338 1.26567
 C430 C -0.09615 0.61067 1.30280
 C431 C -0.10001 0.61403 1.34589
 C432 C -0.10760 0.58183 1.35324
 C433 C -0.11006 0.54504 1.31660
 C434 C -0.10444 0.53998 1.27183
 C435 C -0.10307 0.49922 1.23199
 C436 C -0.10662 0.46392 1.23581
 C437 C -0.11342 0.47009 1.28084
 C438 C -0.11576 0.51068 1.32146
 C439 C -0.09524 0.64898 1.38000
 C440 C -0.08824 0.68103 1.37300
 C441 C -0.08520 0.67849 1.33155
 C442 C -0.08861 0.64334 1.29628
 C443 C -0.10609 0.58015 1.39208
 C444 C -0.10052 0.57469 1.42023
 C445 C -0.08743 0.56372 1.21550
 C446 C -0.07512 0.55398 1.17148
 H447 H -0.09813 0.49314 1.19650
 H448 H -0.10379 0.43134 1.20340
 H449 H -0.11628 0.44268 1.28373
 H450 H -0.12110 0.51388 1.35571
 H451 H -0.09866 0.65366 1.41410
 H452 H -0.08717 0.70986 1.40179
 H453 H -0.07995 0.70368 1.32649
 H454 H -0.08510 0.64194 1.26379
 C455 C 0.03719 0.48977 0.80079
 C456 C 0.06093 0.50633 0.77837
 C457 C 0.05674 0.51141 0.74328
 C458 C 0.02929 0.49943 0.73048
 C459 C -0.00151 0.49011 0.75996
 C460 C 0.00246 0.48524 0.79524
 C461 C -0.03009 0.47735 0.82572
 C462 C -0.06557 0.47442 0.82146
 C463 C -0.06911 0.47885 0.78661
 C464 C -0.03753 0.48657 0.75607
 C465 C 0.07886 0.52996 0.72317
 C466 C 0.10367 0.54389 0.73808
 C467 C 0.10794 0.53875 0.77225
 C468 C 0.08720 0.51989 0.79198
 C469 C 0.03292 0.49639 0.68681
 C470 C 0.03527 0.49380 0.65083
 C471 C 0.04294 0.48286 0.83499
 C472 C 0.04156 0.48185 0.86867
 H473 H -0.02949 0.47439 0.85409
 H474 H -0.09068 0.46893 0.84557
 H475 H -0.09659 0.47643 0.78334
 H476 H -0.04293 0.49102 0.73073
 H477 H 0.07537 0.53577 0.69762
 H478 H 0.11899 0.55943 0.72372
 H479 H 0.12676 0.55012 0.78420
 H480 H 0.09044 0.51761 0.81947
   
