data_POSCAR
  _audit_creation_date              2014-09-24
  _audit_creation_method            'ToBaCCo'
  _symmetry_space_group_name_H-M    'P1'
  _symmetry_Int_Tables_number       1
  _symmetry_cell_setting            triclinic
  loop_
  _symmetry_equiv_pos_as_xyz
 x,y,z
_cell_length_a 20.5126
_cell_length_b 20.5084
_cell_length_c 20.5365
_cell_angle_alpha 90.301100
_cell_angle_beta 90.191000
_cell_angle_gamma 89.991600
loop_
  _atom_site_label
  _atom_site_type_symbol
  _atom_site_fract_x
  _atom_site_fract_y
  _atom_site_fract_z
O1 O 0.44193 1.06580 -0.55703
 O2 O 0.57369 1.03936 -0.43819
 O3 O 0.56900 1.04808 -0.56503
 O4 O 0.45017 1.05521 -0.43109
 O5 O 0.43363 0.94915 -0.44115
 O6 O 0.55344 0.94181 -0.57393
 O7 O 0.56013 0.93292 -0.44687
 O8 O 0.42961 0.95919 -0.56724
 Cu9 Cu 0.51030 1.06291 -0.49753
 Cu10 Cu 0.49291 0.93501 -0.50791
 C11 C 0.41341 1.01687 -0.58238
 C12 C 0.58870 0.98181 -0.42127
 C13 C 0.58112 0.99378 -0.59251
 C14 C 0.42193 1.00326 -0.41319
 O15 O -0.56980 1.43027 0.05468
 O16 O -0.43920 1.55177 0.08522
 O17 O -0.56859 1.55496 0.08028
 O18 O -0.44637 1.42557 0.06940
 O19 O -0.43562 1.44311 -0.03608
 O20 O -0.56203 1.57187 -0.02544
 O21 O -0.43481 1.57031 -0.02049
 O22 O -0.56173 1.44828 -0.05085
 Cu23 Cu -0.50673 1.48981 0.08319
 Cu24 Cu -0.49733 1.51041 -0.04361
 C25 C -0.58748 1.41813 -0.00365
 C26 C -0.41479 1.58165 0.03687
 C27 C -0.58786 1.58434 0.02949
 C28 C -0.42123 1.41114 0.01497
 O29 O -0.03916 0.42970 0.43068
 O30 O -0.06886 0.55379 0.55750
 O31 O -0.06276 0.55298 0.42969
 O32 O -0.04577 0.42842 0.55700
 O33 O 0.05935 0.45057 0.56571
 O34 O 0.04291 0.57292 0.43603
 O35 O 0.03682 0.57323 0.56314
 O36 O 0.06695 0.44640 0.43960
 Cu37 Cu -0.06483 0.48949 0.49325
 Cu38 Cu 0.06219 0.51301 0.50113
 C39 C 0.01893 0.41644 0.41422
 C40 C -0.02085 0.58416 0.58267
 C41 C -0.01262 0.58358 0.41063
 C42 C 0.00943 0.41880 0.58348
 O43 O -0.17022 1.00581 -0.08571
 O44 O 0.16412 0.98775 -0.09906
 O45 O -0.00808 1.07487 -0.17767
 O46 O -0.00643 0.89955 -0.16435
 O47 O -0.00582 0.82595 -0.07950
 O48 O 0.00272 1.16056 -0.10514
 O49 O 0.08070 0.98045 -0.17442
 O50 O -0.09453 0.99289 -0.16782
 Zr51 Zr -0.00452 0.99139 -0.11817
 O52 O 0.05415 0.93447 -0.06050
 O53 O -0.05858 1.05693 -0.06499
 C54 C -0.15330 1.00098 -0.14637
 C55 C 0.14176 0.98074 -0.15783
 C56 C -0.00467 1.13642 -0.16320
 C57 C -0.00491 0.84112 -0.14080
 H58 H 0.08731 1.07745 -0.10051
 O59 O 0.05949 1.05255 -0.07023
 H60 H -0.09292 0.91091 -0.08124
 O61 O -0.06315 0.93946 -0.05606
 O62 O 0.17260 0.99760 0.07571
 O63 O -0.16208 1.01049 0.09130
 O64 O 0.09530 1.16449 -0.01464
 O65 O 0.08224 0.82919 0.00268
 O66 O -0.09499 0.83689 0.01383
 O67 O -0.08070 1.17057 -0.01992
 O68 O 0.01463 1.10271 0.15530
 O69 O 0.00619 0.92687 0.16979
 O70 O 0.00884 1.17521 0.06981
 O71 O -0.00437 0.84086 0.09740
 O72 O 0.17147 1.08182 -0.00914
 O73 O -0.16327 1.09556 -0.00569
 O74 O -0.17058 0.92012 0.00780
 O75 O 0.16380 0.90558 -0.01130
 O76 O 0.09799 1.01295 0.15830
 O77 O -0.07842 1.01732 0.16663
 Zr78 Zr 0.11496 0.99585 -0.00925
 Zr79 Zr -0.11371 1.00529 0.00053
 Zr80 Zr 0.00529 1.11476 -0.01339
 Zr81 Zr -0.00426 0.88576 0.00484
 Zr82 Zr 0.00677 1.01014 0.10984
 O83 O -0.05781 0.94888 0.06206
 O84 O 0.06502 1.06194 0.04750
 C85 C 0.15677 1.00527 0.13631
 C86 C -0.13956 1.01556 0.15031
 C87 C 0.15440 1.14267 -0.00974
 C88 C 0.14255 0.84636 -0.00608
 C89 C -0.15428 0.85922 0.01251
 C90 C -0.14157 1.15417 -0.01557
 C91 C 0.01256 1.16108 0.13118
 C92 C 0.00116 0.86531 0.15564
 H93 H -0.07885 1.09726 0.07814
 O94 O -0.05282 1.06630 0.05190
 H95 H 0.08795 0.91687 0.08397
 O96 O 0.05978 0.94403 0.05595
 C97 C 0.30795 0.98804 0.27432
 C98 C 0.26288 1.03943 0.27905
 N99 N 0.26896 1.08378 0.32809
 C100 C 0.31787 1.07878 0.37281
 C101 C 0.36168 1.02619 0.36914
 N102 N 0.35550 0.98212 0.31983
 N103 N 0.30369 0.94497 0.22420
 C104 C 0.25611 0.95070 0.17852
 C105 C 0.20980 1.00089 0.18397
 N106 N 0.21410 1.04420 0.23433
 H107 H 0.32161 1.11452 0.41161
 H108 H 0.25348 0.91549 0.13911
 C109 C -0.27583 1.02876 0.30339
 C110 C -0.28551 0.98489 0.25146
 N111 N -0.33801 0.94465 0.25181
 C112 C -0.38135 0.94624 0.30175
 C113 C -0.37250 0.99092 0.35318
 N114 N -0.31988 1.03139 0.35258
 N115 N -0.22188 1.06709 0.30438
 C116 C -0.17709 1.06351 0.25582
 C117 C -0.18726 1.02052 0.20321
 N118 N -0.24153 0.98233 0.20223
 H119 H -0.42280 0.91357 0.30089
 H120 H -0.13437 1.09448 0.25778
 C121 C -0.29537 1.02083 -0.29277
 C122 C -0.27209 0.95883 -0.27571
 N123 N -0.29539 0.90534 -0.30732
 C124 C -0.34102 0.91096 -0.35525
 C125 C -0.36385 0.97321 -0.37316
 N126 N -0.34002 1.02653 -0.34118
 N127 N -0.27336 1.07434 -0.26036
 C128 C -0.22873 1.06870 -0.21169
 C129 C -0.20458 1.00694 -0.19531
 N130 N -0.22661 0.95324 -0.22782
 H131 H -0.35881 0.86731 -0.37927
 H132 H -0.21129 1.11205 -0.18682
 C133 C 0.27884 0.96705 -0.30982
 C134 C 0.28799 1.01102 -0.25792
 N135 N 0.34013 1.05172 -0.25801
 C136 C 0.38366 1.05052 -0.30773
 C137 C 0.37534 1.00581 -0.35919
 N138 N 0.32309 0.96485 -0.35883
 N139 N 0.22517 0.92830 -0.31101
 C140 C 0.18009 0.93166 -0.26266
 C141 C 0.18976 0.97486 -0.21019
 N142 N 0.24376 1.01338 -0.20902
 H143 H 0.42484 1.08352 -0.30669
 H144 H 0.13749 0.90054 -0.26480
 C145 C 0.29834 1.28525 0.02331
 C146 C 0.27135 1.27676 -0.03915
 N147 N 0.29209 1.31490 -0.08870
 C148 C 0.33854 1.36123 -0.07875
 C149 C 0.36484 1.37090 -0.01585
 N150 N 0.34369 1.33238 0.03363
 N151 N 0.27918 1.24585 0.07254
 C152 C 0.23395 1.19849 0.06221
 C153 C 0.20590 1.19088 0.00020
 N154 N 0.22507 1.23034 -0.04922
 H155 H 0.35401 1.39067 -0.11948
 H156 H 0.21902 1.16781 0.10226
 C157 C 0.29226 0.70645 -0.01818
 C158 C 0.25894 0.71687 0.04062
 N159 N 0.27779 0.68416 0.09473
 C160 C 0.32830 0.64125 0.09283
 C161 C 0.36147 0.62985 0.03375
 N162 N 0.34222 0.66304 -0.02037
 N163 N 0.27470 0.74060 -0.07190
 C164 C 0.22549 0.78496 -0.06940
 C165 C 0.19174 0.79497 -0.01083
 N166 N 0.20929 0.76068 0.04299
 H167 H 0.34177 0.61586 0.13696
 H168 H 0.21301 0.81250 -0.11253
 C169 C -0.30958 0.72435 0.00528
 C170 C -0.26123 0.71854 0.05347
 N171 N -0.26565 0.66961 0.09773
 C172 C -0.31582 0.62595 0.09547
 C173 C -0.36291 0.63054 0.04576
 N174 N -0.35837 0.67991 0.00201
 N175 N -0.30689 0.77407 -0.03783
 C176 C -0.25779 0.81836 -0.03527
 C177 C -0.20817 0.81195 0.01157
 N178 N -0.21090 0.76194 0.05508
 H179 H -0.31782 0.58699 0.13075
 H180 H -0.25670 0.85752 -0.07043
 C181 C -0.27860 1.30754 -0.02634
 C182 C -0.29007 1.25268 0.01278
 N183 N -0.34415 1.25040 0.05042
 C184 C -0.38717 1.30071 0.05120
 C185 C -0.37616 1.35558 0.01196
 N186 N -0.32217 1.35754 -0.02641
 N187 N -0.22303 1.31074 -0.06190
 C188 C -0.17824 1.26183 -0.05977
 C189 C -0.18986 1.20678 -0.02089
 N190 N -0.24590 1.20348 0.01413
 H191 H -0.42975 1.29785 0.08207
 H192 H -0.13415 1.26574 -0.08832
 C193 C -0.00346 1.31523 0.26653
 C194 C 0.04455 1.26705 0.27474
 N195 N 0.08524 1.27033 0.32700
 C196 C 0.07962 1.31926 0.37172
 C197 C 0.02994 1.36590 0.36478
 N198 N -0.01037 1.36269 0.31216
 N199 N -0.04272 1.31357 0.21330
 C200 C -0.03662 1.26551 0.16802
 C201 C 0.00968 1.21587 0.17718
 N202 N 0.04932 1.21771 0.23052
 H203 H 0.11222 1.32060 0.41327
 H204 H -0.06902 1.26486 0.12628
 C205 C -0.01926 1.27206 -0.31616
 C206 C 0.02496 1.28189 -0.26467
 N207 N 0.06404 1.33526 -0.26451
 C208 C 0.06078 1.37950 -0.31346
 C209 C 0.01544 1.37069 -0.36422
 N210 N -0.02366 1.31704 -0.36425
 N211 N -0.05672 1.21749 -0.31743
 C212 C -0.05211 1.17234 -0.26937
 C213 C -0.00905 1.18289 -0.21699
 N214 N 0.02840 1.23766 -0.21589
 H215 H 0.09234 1.42180 -0.31210
 H216 H -0.08273 1.12936 -0.27125
 C217 C 0.01644 0.69965 -0.28773
 C218 C -0.04598 0.71706 -0.26584
 N219 N -0.09925 0.68994 -0.29462
 C220 C -0.09298 0.64620 -0.34435
 C221 C -0.03038 0.62922 -0.36697
 N222 N 0.02267 0.65669 -0.33766
 N223 N 0.06990 0.72628 -0.25906
 C224 C 0.06380 0.77011 -0.20966
 C225 C 0.00153 0.78833 -0.18825
 N226 N -0.05219 0.76156 -0.21693
 H227 H -0.13643 0.62533 -0.36606
 H228 H 0.10707 0.79171 -0.18824
 C229 C 0.01468 0.73055 0.30987
 C230 C -0.02891 0.71992 0.25797
 N231 N -0.06720 0.66596 0.25774
 C232 C -0.06372 0.62194 0.30694
 C233 C -0.01887 0.63151 0.35803
 N234 N 0.01940 0.68576 0.35815
 N235 N 0.05130 0.78565 0.31131
 C236 C 0.04660 0.83052 0.26301
 C237 C 0.00437 0.81919 0.21007
 N238 N -0.03237 0.76388 0.20881
 H239 H -0.09467 0.57920 0.30552
 H240 H 0.07672 0.87384 0.26507
   
