data_POSCAR
  _audit_creation_date              2014-09-24
  _audit_creation_method            'ToBaCCo'
  _symmetry_space_group_name_H-M    'P1'
  _symmetry_Int_Tables_number       1
  _symmetry_cell_setting            triclinic
  loop_
  _symmetry_equiv_pos_as_xyz
 x,y,z
_cell_length_a 45.0858
_cell_length_b 45.0354
_cell_length_c 45.0381
_cell_angle_alpha 90.029600
_cell_angle_beta 89.974700
_cell_angle_gamma 90.051100
loop_
  _atom_site_label
  _atom_site_type_symbol
  _atom_site_fract_x
  _atom_site_fract_y
  _atom_site_fract_z
Si1 Si 0.25008 0.49981 1.00038
 Si2 Si 0.75014 0.50020 -0.00056
 Si3 Si -0.00010 0.24994 0.49984
 Si4 Si 0.99983 0.75012 0.50002
 Si5 Si 0.50053 0.00001 0.25018
 Si6 Si 0.49922 0.00001 0.75000
 C7 C 0.29543 0.02262 0.46403
 H8 H 0.29619 0.03962 0.48101
 C9 C 0.31558 0.02333 0.44050
 H10 H 0.33189 0.04097 0.43924
 C11 C 0.27383 -0.02165 0.44534
 H12 H 0.25794 -0.03946 0.44762
 C13 C 0.29360 -0.02178 0.42144
 H14 H 0.29271 -0.03954 0.40524
 N15 N 0.27499 0.00046 0.46595
 C16 C 0.20457 0.03618 0.52189
 H17 H 0.20369 0.01921 0.53887
 C18 C 0.18456 0.05980 0.52259
 H19 H 0.16825 0.06114 0.54021
 C20 C 0.22633 0.05475 0.47766
 H21 H 0.24221 0.05239 0.45987
 C22 C 0.20669 0.07875 0.47752
 H23 H 0.20769 0.09493 0.45976
 Zn24 Zn 0.24988 0.00033 0.49963
 N25 N 0.22502 0.03416 0.49975
 C26 C 0.27353 0.02220 0.55408
 N27 N 0.27470 0.00007 0.53350
 C28 C 0.29494 -0.02223 0.53559
 C29 C 0.31487 -0.02305 0.55928
 C30 C 0.29310 0.02221 0.57814
 C31 C 0.20455 -0.03533 0.47700
 C32 C 0.18444 -0.05890 0.47612
 C33 C 0.20604 -0.07792 0.52138
 C34 C 0.22578 -0.05398 0.52142
 N35 N 0.22479 -0.03338 0.49932
 H36 H 0.25781 0.04011 0.55166
 H37 H 0.29571 -0.03924 0.51863
 H38 H 0.33102 -0.04080 0.56069
 H39 H 0.29221 0.04000 0.59432
 H40 H 0.20391 -0.01836 0.46002
 H41 H 0.16830 -0.06019 0.45835
 H42 H 0.20679 -0.09412 0.53913
 H43 H 0.24151 -0.05167 0.53935
 C44 C 0.18560 0.08123 0.50017
 C45 C 0.31468 0.00090 0.41905
 C46 C 0.18517 -0.08035 0.49854
 C47 C 0.31397 -0.00060 0.58071
 C48 C 0.70451 0.02222 0.53623
 H49 H 0.70385 0.03921 0.51927
 C50 C 0.68437 0.02302 0.55977
 H51 H 0.66818 0.04073 0.56105
 C52 C 0.72585 -0.02215 0.55486
 H53 H 0.74162 -0.04003 0.55256
 C54 C 0.70608 -0.02219 0.57878
 H55 H 0.70686 -0.03996 0.59496
 N56 N 0.72481 -0.00004 0.53428
 C57 C 0.79539 0.03536 0.47828
 H58 H 0.79617 0.01837 0.46131
 C59 C 0.81549 0.05894 0.47753
 H60 H 0.83178 0.06022 0.45988
 C61 C 0.77377 0.05407 0.52252
 H62 H 0.75789 0.05179 0.54033
 C63 C 0.79350 0.07803 0.52261
 H64 H 0.79259 0.09426 0.54035
 Zn65 Zn 0.74989 -0.00028 0.50057
 N66 N 0.77496 0.03344 0.50044
 C67 C 0.72630 0.02169 0.44616
 N68 N 0.72502 -0.00042 0.46674
 C69 C 0.70462 -0.02261 0.46467
 C70 C 0.68464 -0.02335 0.44101
 C71 C 0.70670 0.02179 0.42213
 C72 C 0.79502 -0.03618 0.52307
 C73 C 0.81500 -0.05983 0.52386
 C74 C 0.79319 -0.07871 0.47861
 C75 C 0.77359 -0.05469 0.47866
 N76 N 0.77475 -0.03412 0.50080
 H77 H 0.74214 0.03952 0.44856
 H78 H 0.70376 -0.03961 0.48162
 H79 H 0.66838 -0.04102 0.43962
 H80 H 0.70768 0.03956 0.40596
 H81 H 0.79579 -0.01923 0.54009
 H82 H 0.83118 -0.06121 0.54159
 H83 H 0.79231 -0.09488 0.46081
 H84 H 0.75785 -0.05229 0.46076
 C85 C 0.81456 0.08043 0.49993
 C86 C 0.68514 0.00058 0.58119
 C87 C 0.81410 -0.08125 0.50139
 C88 C 0.68567 -0.00092 0.41959
 C89 C 0.47773 0.20473 1.03602
 H90 H 0.46075 0.20393 1.01907
 C91 C 0.47699 0.18468 1.05963
 H92 H 0.45933 0.16840 1.06098
 C93 C 0.52202 0.22635 1.05456
 H94 H 0.53984 0.24220 1.05220
 C95 C 0.52211 0.20667 1.07855
 H96 H 0.53987 0.20760 1.09472
 N97 N 0.49992 0.22514 1.03400
 C98 C 0.46437 0.29549 0.97787
 H99 H 0.48132 0.29629 0.96089
 C100 C 0.44076 0.31551 0.97710
 H101 H 0.43943 0.33176 0.95942
 C102 C 0.44576 0.27389 1.02217
 H103 H 0.44809 0.25805 1.04000
 C104 C 0.42178 0.29354 1.02223
 H105 H 0.40558 0.29260 1.03998
 Zn106 Zn 0.50009 0.25013 1.00023
 N107 N 0.46635 0.27510 1.00007
 C108 C 0.47814 0.22631 0.94588
 N109 N 0.50024 0.22513 0.96644
 C110 C 0.52242 0.20476 0.96439
 C111 C 0.52314 0.18469 0.94077
 C112 C 0.47802 0.20661 0.92189
 C113 C 0.53585 0.29554 1.02261
 C114 C 0.55946 0.31560 1.02337
 C115 C 0.57839 0.29364 0.97821
 C116 C 0.55441 0.27396 0.97828
 N117 N 0.53383 0.27515 1.00039
 H118 H 0.46032 0.24214 0.94826
 H119 H 0.53941 0.20399 0.98133
 H120 H 0.54079 0.16844 0.93940
 H121 H 0.46026 0.20751 0.90573
 H122 H 0.51890 0.29633 1.03960
 H123 H 0.56081 0.33186 1.04106
 H124 H 0.59457 0.29273 0.96044
 H125 H 0.55205 0.25812 0.96043
 C126 C 0.41931 0.31454 0.99951
 C127 C 0.49941 0.18563 1.08105
 C128 C 0.58088 0.31466 1.00094
 C129 C 0.50071 0.18560 0.91937
 C130 C 0.47758 0.79526 -0.03568
 H131 H 0.46070 0.79602 -0.01862
 C132 C 0.47668 0.81531 -0.05929
 H133 H 0.45901 0.83155 -0.06052
 C134 C 0.52175 0.77374 -0.05455
 H135 H 0.53960 0.75792 -0.05231
 C136 C 0.52169 0.79342 -0.07853
 H137 H 0.53934 0.79252 -0.09483
 N138 N 0.49979 0.77490 -0.03382
 C139 C 0.46458 0.70447 0.02253
 H140 H 0.48162 0.70370 0.03941
 C141 C 0.44099 0.68439 0.02343
 H142 H 0.43976 0.66813 0.04111
 C143 C 0.44574 0.72603 -0.02165
 H144 H 0.44798 0.74187 -0.03950
 C145 C 0.42178 0.70633 -0.02159
 H146 H 0.40550 0.70723 -0.03925
 Zn147 Zn 0.50017 0.74991 -0.00006
 N148 N 0.46644 0.72486 0.00032
 C149 C 0.47853 0.77369 0.05444
 N150 N 0.50052 0.77491 0.03373
 C151 C 0.52270 0.79533 0.03564
 C152 C 0.52356 0.81539 0.05927
 C153 C 0.47855 0.79337 0.07844
 C154 C 0.53580 0.70457 -0.02269
 C155 C 0.55941 0.68456 -0.02362
 C156 C 0.57861 0.70655 0.02142
 C157 C 0.55463 0.72619 0.02151
 N158 N 0.53392 0.72496 -0.00046
 H159 H 0.46070 0.75782 0.05216
 H160 H 0.53960 0.79615 0.01859
 H161 H 0.54121 0.83168 0.06053
 H162 H 0.46088 0.79243 0.09471
 H163 H 0.51876 0.70376 -0.03957
 H164 H 0.56065 0.66830 -0.04131
 H165 H 0.59489 0.70749 0.03908
 H166 H 0.55238 0.74202 0.03938
 C167 C 0.41943 0.68531 0.00114
 C168 C 0.49897 0.81441 -0.08087
 C169 C 0.58097 0.68553 -0.00133
 C170 C 0.50125 0.81442 0.08082
 C171 C 1.03530 0.47743 0.20450
 H172 H 1.01827 0.46051 0.20365
 C173 C 1.05896 0.47657 0.18451
 H174 H 1.06025 0.45889 0.16824
 C175 C 1.05404 0.52164 0.22619
 H176 H 1.05173 0.53948 0.24205
 C177 C 1.07807 0.52162 0.20658
 H178 H 1.09434 0.53931 0.20756
 N179 N 1.03335 0.49963 0.22491
 C180 C 0.97692 0.46413 0.29510
 H181 H 0.96002 0.48114 0.29588
 C182 C 0.97602 0.44048 0.31511
 H183 H 0.95833 0.43918 0.33134
 C184 C 1.02118 0.44543 0.27358
 H185 H 1.03906 0.44776 0.25779
 C186 C 1.02111 0.42142 0.29322
 H187 H 1.03881 0.40518 0.29233
 Zn188 Zn 0.99955 0.49990 0.24983
 N189 N 0.99917 0.46609 0.27476
 C190 C 0.94518 0.47822 0.22590
 N191 N 0.96587 0.50023 0.22477
 C192 C 0.96404 0.52246 0.20440
 C193 C 0.94050 0.52335 0.18431
 C194 C 0.92126 0.47827 0.20617
 C195 C 1.02193 0.53553 0.29535
 C196 C 1.02272 0.55911 0.31547
 C197 C 0.97778 0.57828 0.29341
 C198 C 0.97783 0.55433 0.27367
 N199 N 0.99981 0.53365 0.27489
 H200 H 0.94739 0.46035 0.24172
 H201 H 0.98109 0.53937 0.20367
 H202 H 0.93930 0.54104 0.16807
 H203 H 0.90498 0.46058 0.20703
 H204 H 1.03882 0.51850 0.29615
 H205 H 1.04031 0.56035 0.33180
 H206 H 0.96012 0.59454 0.29247
 H207 H 0.96005 0.55208 0.25776
 C208 C 0.99835 0.41898 0.31419
 C209 C 1.08050 0.49890 0.18554
 C210 C 1.00041 0.58064 0.31452
 C211 C 0.91895 0.50102 0.18518
 C212 C -0.03510 0.47761 0.79529
 H213 H -0.01813 0.46066 0.79609
 C214 C -0.05876 0.47675 0.81529
 H215 H -0.06010 0.45904 0.83151
 C216 C -0.05370 0.52190 0.77375
 H217 H -0.05135 0.53977 0.75794
 C218 C -0.07773 0.52188 0.79337
 H219 H -0.09394 0.53959 0.79245
 N220 N -0.03309 0.49985 0.77495
 C221 C 0.02311 0.46435 0.70459
 H222 H 0.04010 0.48132 0.70384
 C223 C 0.02389 0.44073 0.68452
 H224 H 0.04158 0.43940 0.66829
 C225 C -0.02122 0.44576 0.72609
 H226 H -0.03908 0.44811 0.74189
 C227 C -0.02128 0.42177 0.70639
 H228 H -0.03904 0.40558 0.70726
 Zn229 Zn 0.00068 0.50010 0.74999
 N230 N 0.00089 0.46635 0.72495
 C231 C 0.05500 0.47824 0.77379
 N232 N 0.03439 0.50030 0.77501
 C233 C 0.03633 0.52248 0.79545
 C234 C 0.05990 0.52326 0.81553
 C235 C 0.07894 0.47819 0.79350
 C236 C -0.02161 0.53588 0.70462
 C237 C -0.02235 0.55951 0.68458
 C238 C 0.02266 0.57856 0.70666
 C239 C 0.02257 0.55456 0.72632
 N240 N 0.00052 0.53391 0.72505
 H241 H 0.05270 0.46042 0.75792
 H242 H 0.01936 0.53943 0.79626
 H243 H 0.06118 0.54092 0.83183
 H244 H 0.09514 0.46047 0.79256
 H245 H -0.03856 0.51887 0.70378
 H246 H -0.03997 0.56081 0.66829
 H247 H 0.04038 0.59481 0.70764
 H248 H 0.04035 0.55225 0.74220
 C249 C 0.00146 0.41929 0.68541
 C250 C -0.08022 0.49911 0.81434
 C251 C 0.00002 0.58100 0.68559
 C252 C 0.08135 0.50089 0.81457
 C253 C 0.03254 0.22644 0.49961
 C254 C 0.05362 0.21003 0.49951
 C255 C 0.07822 0.18969 0.49945
 C256 C 0.09098 0.18066 0.52632
 C257 C 0.11376 0.15960 0.52638
 C258 C 0.12386 0.14748 0.49956
 C259 C 0.11136 0.15680 0.47266
 C260 C 0.08858 0.17786 0.47260
 C261 C 0.14616 0.12465 0.49973
 C262 C 0.16439 0.10508 0.49991
 H263 H 0.08303 0.18956 0.54721
 H264 H 0.12319 0.15246 0.54731
 H265 H 0.11892 0.14749 0.45181
 H266 H 0.07876 0.18458 0.45171
 C267 C 0.72658 0.53281 -0.00083
 C268 C 0.71011 0.55386 -0.00100
 C269 C 0.68971 0.57841 -0.00120
 C270 C 0.68074 0.59146 0.02558
 C271 C 0.65960 0.61418 0.02550
 C272 C 0.64734 0.62392 -0.00136
 C273 C 0.65660 0.61114 -0.02817
 C274 C 0.67773 0.58842 -0.02809
 C275 C 0.62444 0.64616 -0.00134
 C276 C 0.60484 0.66435 -0.00133
 H277 H 0.68975 0.58379 0.04651
 H278 H 0.65252 0.62383 0.04637
 H279 H 0.64717 0.61842 -0.04906
 H280 H 0.68440 0.57838 -0.04892
 C281 C 0.96712 -0.22648 0.50021
 C282 C 0.94600 -0.21011 0.50037
 C283 C 0.92136 -0.18983 0.50059
 C284 C 0.91035 -0.17900 0.52759
 C285 C 0.88758 -0.15793 0.52777
 C286 C 0.87573 -0.14760 0.50095
 C287 C 0.88646 -0.15874 0.47395
 C288 C 0.90923 -0.17981 0.47377
 C289 C 0.85346 -0.12473 0.50110
 C290 C 0.83527 -0.10513 0.50123
 H291 H 0.91967 -0.18650 0.54845
 H292 H 0.87953 -0.14939 0.54877
 H293 H 0.87753 -0.15082 0.45308
 H294 H 0.91768 -0.18793 0.45276
 C295 C 0.27364 0.46719 1.00020
 C296 C 0.29011 0.44614 1.00008
 C297 C 0.31051 0.42160 0.99994
 C298 C 0.32031 0.40936 1.02679
 C299 C 0.34146 0.38666 1.02671
 C300 C 0.35290 0.37611 0.99977
 C301 C 0.34281 0.38808 0.97290
 C302 C 0.32166 0.41078 0.97299
 C303 C 0.37581 0.35389 0.99972
 C304 C 0.39543 0.33572 0.99964
 H305 H 0.31194 0.41767 1.04776
 H306 H 0.34920 0.37765 1.04761
 H307 H 0.35160 0.38017 0.95195
 H308 H 0.31434 0.42018 0.95210
 C309 C 0.96739 0.22621 0.50010
 C310 C 0.94638 0.20965 0.50019
 C311 C 0.92188 0.18917 0.50021
 C312 C 0.91042 0.17860 0.52713
 C313 C 0.88769 0.15743 0.52713
 C314 C 0.87635 0.14675 0.50020
 C315 C 0.88756 0.15760 0.47329
 C316 C 0.91028 0.17876 0.47329
 C317 C 0.85406 0.12386 0.50017
 C318 C 0.83582 0.10427 0.50008
 H319 H 0.91933 0.18639 0.54808
 H320 H 0.87927 0.14911 0.54807
 H321 H 0.87902 0.14940 0.45234
 H322 H 0.91908 0.18668 0.45235
 C323 C 0.27371 0.53241 0.00062
 C324 C 0.29022 0.55346 0.00077
 C325 C 0.31066 0.57801 0.00095
 C326 C 0.32233 0.58836 0.02787
 C327 C 0.34349 0.61109 0.02794
 C328 C 0.35307 0.62356 0.00111
 C329 C 0.34112 0.61348 -0.02579
 C330 C 0.31996 0.59075 -0.02587
 C331 C 0.37597 0.64584 0.00111
 C332 C 0.39557 0.66407 0.00112
 H333 H 0.31540 0.57857 0.04872
 H334 H 0.35267 0.61864 0.04886
 H335 H 0.34846 0.62289 -0.04668
 H336 H 0.31119 0.58281 -0.04682
 C337 C 0.03229 -0.22609 0.49962
 C338 C 0.05326 -0.20949 0.49924
 C339 C 0.07771 -0.18895 0.49868
 C340 C 0.09462 -0.18405 0.52432
 C341 C 0.11737 -0.16290 0.52414
 C342 C 0.12327 -0.14657 0.49833
 C343 C 0.10660 -0.15173 0.47260
 C344 C 0.08387 -0.17288 0.47278
 C345 C 0.14563 -0.12374 0.49849
 C346 C 0.16389 -0.10418 0.49855
 H347 H 0.08996 -0.19627 0.54451
 H348 H 0.13006 -0.15899 0.54419
 H349 H 0.11090 -0.13915 0.45255
 H350 H 0.07084 -0.17639 0.45287
 C351 C 0.72654 0.46758 0.99972
 C352 C 0.71005 0.44652 0.99993
 C353 C 0.68964 0.42194 1.00020
 C354 C 0.68026 0.40917 0.97343
 C355 C 0.65911 0.38642 0.97361
 C356 C 0.64727 0.37636 1.00056
 C357 C 0.65695 0.38887 1.02736
 C358 C 0.67809 0.41162 1.02717
 C359 C 0.62437 0.35409 1.00067
 C360 C 0.60476 0.33588 1.00079
 H361 H 0.68894 0.41709 0.95244
 H362 H 0.65170 0.37698 0.95276
 H363 H 0.64786 0.38134 1.04831
 H364 H 0.68509 0.42144 1.04799
 C365 C 0.50046 0.03264 1.22660
 C366 C 0.50036 0.05371 1.21013
 C367 C 0.50019 0.07830 1.18973
 C368 C 0.47322 0.08933 1.17894
 C369 C 0.47307 0.11208 1.15782
 C370 C 0.49988 0.12390 1.14740
 C371 C 0.52684 0.11313 1.15848
 C372 C 0.52699 0.09037 1.17961
 C373 C 0.49975 0.14618 1.12451
 C374 C 0.49960 0.16440 1.10491
 H375 H 0.45237 0.08005 1.18651
 H376 H 0.45210 0.12015 1.14930
 H377 H 0.54770 0.12202 1.15049
 H378 H 0.54797 0.08191 1.18770
 C379 C 0.00016 0.72662 0.53270
 C380 C 0.00031 0.71017 0.55379
 C381 C 0.00043 0.68979 0.57837
 C382 C 0.02728 0.67811 0.58875
 C383 C 0.02728 0.65697 0.61149
 C384 C 0.00043 0.64742 0.62393
 C385 C -0.02640 0.65938 0.61381
 C386 C -0.02640 0.68053 0.59107
 C387 C 0.00033 0.62451 0.64619
 C388 C 0.00021 0.60489 0.66439
 H389 H 0.04814 0.68501 0.57898
 H390 H 0.04815 0.64777 0.61906
 H391 H -0.04729 0.65206 0.62319
 H392 H -0.04730 0.68931 0.58311
 C393 C 0.49919 0.96737 -0.22643
 C394 C 0.49915 0.94630 -0.20997
 C395 C 0.49909 0.92171 -0.18958
 C396 C 0.52596 0.90978 -0.17953
 C397 C 0.52593 0.88703 -0.15839
 C398 C 0.49903 0.87613 -0.14723
 C399 C 0.47216 0.88779 -0.15758
 C400 C 0.47218 0.91054 -0.17871
 C401 C 0.49902 0.85385 -0.12434
 C402 C 0.49900 0.83563 -0.10473
 H403 H 0.54689 0.91836 -0.18768
 H404 H 0.54684 0.87826 -0.15046
 H405 H 0.45123 0.87960 -0.14901
 H406 H 0.45129 0.91970 -0.18623
 C407 C 0.99956 0.27350 0.46721
 C408 C 0.99928 0.28995 0.44613
 C409 C 0.99892 0.31032 0.42154
 C410 C 1.02553 0.31875 0.40783
 C411 C 1.02532 0.33985 0.38505
 C412 C 0.99851 0.35261 0.37590
 C413 C 0.97186 0.34389 0.38934
 C414 C 0.97206 0.32279 0.41212
 C415 C 0.99845 0.37549 0.35361
 C416 C 0.99841 0.39510 0.33540
 H417 H 1.04643 0.30935 0.41504
 H418 H 1.04606 0.34652 0.37488
 H419 H 0.95102 0.35371 0.38252
 H420 H 0.95138 0.31655 0.42267
 C421 C 0.50059 0.96740 0.22654
 C422 C 0.50067 0.94633 0.21004
 C423 C 0.50081 0.92175 0.18962
 C424 C 0.52775 0.91080 0.17865
 C425 C 0.52785 0.88804 0.15750
 C426 C 0.50102 0.87615 0.14724
 C427 C 0.47409 0.88683 0.15851
 C428 C 0.47398 0.90959 0.17966
 C429 C 0.50109 0.85387 0.12433
 C430 C 0.50116 0.83565 0.10471
 H431 H 0.54861 0.92015 0.18609
 H432 H 0.54880 0.88003 0.14885
 H433 H 0.45321 0.87787 0.15065
 H434 H 0.45302 0.91799 0.18790
 C435 C 0.00012 0.27358 0.53244
 C436 C 0.00031 0.29008 0.55350
 C437 C 0.00056 0.31051 0.57807
 C438 C -0.02621 0.32053 0.59029
 C439 C -0.02600 0.34167 0.61304
 C440 C 0.00099 0.35290 0.62366
 C441 C 0.02777 0.34259 0.61171
 C442 C 0.02755 0.32144 0.58895
 C443 C 0.00116 0.37580 0.64594
 C444 C 0.00131 0.39542 0.66417
 H445 H -0.04721 0.31233 0.58194
 H446 H -0.04683 0.34958 0.62205
 H447 H 0.04875 0.35121 0.61967
 H448 H 0.04838 0.31396 0.57956
 C449 C 0.49933 0.03261 0.77365
 C450 C 0.49947 0.05366 0.79017
 C451 C 0.49969 0.07822 0.81061
 C452 C 0.52668 0.08942 0.82122
 C453 C 0.52688 0.11217 0.84238
 C454 C 0.50009 0.12381 0.85301
 C455 C 0.47310 0.11287 0.84211
 C456 C 0.47290 0.09012 0.82096
 C457 C 0.50030 0.14611 0.87590
 C458 C 0.50048 0.16434 0.89551
 H459 H 0.54752 0.08028 0.81348
 H460 H 0.54788 0.12038 0.85074
 H461 H 0.45226 0.12163 0.85027
 H462 H 0.45190 0.08152 0.81301
 C463 C 0.99974 0.72638 0.46749
 C464 C 0.99977 0.70982 0.44647
 C465 C 0.99988 0.68934 0.42194
 C466 C 0.97304 0.67919 0.40997
 C467 C 0.97314 0.65803 0.38723
 C468 C 1.00007 0.64693 0.37637
 C469 C 1.02691 0.65737 0.38809
 C470 C 1.02682 0.67853 0.41083
 C471 C 1.00016 0.62405 0.35406
 C472 C 1.00026 0.60447 0.33580
 H473 H 0.95208 0.68730 0.41850
 H474 H 0.95225 0.65002 0.37841
 H475 H 1.04786 0.64885 0.37995
 H476 H 1.04769 0.68612 0.42003
 C477 C 1.22644 0.49960 0.03296
 C478 C 1.20993 0.49945 0.05400
 C479 C 1.18948 0.49925 0.07854
 C480 C 1.17797 0.47231 0.08899
 C481 C 1.15679 0.47220 0.11169
 C482 C 1.14703 0.49904 0.12402
 C483 C 1.15884 0.52597 0.11385
 C484 C 1.18002 0.52607 0.09114
 C485 C 1.12408 0.49900 0.14624
 C486 C 1.10443 0.49896 0.16439
 H487 H 1.18502 0.45145 0.07930
 H488 H 1.14772 0.45126 0.11931
 H489 H 1.15136 0.54685 0.12315
 H490 H 1.18867 0.54704 0.08313
 C491 C 0.53179 0.00002 0.72636
 C492 C 0.55285 0.00008 0.70988
 C493 C 0.57743 0.00021 0.68950
 C494 C 0.58808 0.02715 0.67814
 C495 C 0.61089 0.02722 0.65708
 C496 C 0.62314 0.00036 0.64729
 C497 C 0.61275 -0.02656 0.65893
 C498 C 0.58993 -0.02663 0.67999
 C499 C 0.64552 0.00038 0.62450
 C500 C 0.66382 0.00045 0.60497
 H501 H 0.57848 0.04802 0.68523
 H502 H 0.61868 0.04815 0.64814
 H503 H 0.62198 -0.04746 0.65143
 H504 H 0.58176 -0.04759 0.68852
 C505 C -0.22622 0.49991 0.96686
 C506 C -0.20969 0.49971 0.94583
 C507 C -0.18923 0.49948 0.92132
 C508 C -0.17995 0.52627 0.90850
 C509 C -0.15876 0.52614 0.88581
 C510 C -0.14675 0.49923 0.87586
 C511 C -0.15632 0.47242 0.88840
 C512 C -0.17751 0.47254 0.91109
 C513 C -0.12380 0.49920 0.85364
 C514 C -0.10415 0.49917 0.83549
 H515 H -0.18875 0.54723 0.91635
 H516 H -0.15143 0.54701 0.87634
 H517 H -0.14710 0.45149 0.88095
 H518 H -0.18442 0.45171 0.92095
 C519 C 0.46794 -0.00004 0.27379
 C520 C 0.44688 -0.00002 0.29028
 C521 C 0.42231 0.00006 0.31067
 C522 C 0.41102 -0.02679 0.32159
 C523 C 0.38823 -0.02666 0.34267
 C524 C 0.37665 0.00032 0.35293
 C525 C 0.38769 0.02717 0.34173
 C526 C 0.41048 0.02704 0.32065
 C527 C 0.35430 0.00049 0.37574
 C528 C 0.33601 0.00067 0.39527
 H529 H 0.42011 -0.04778 0.31413
 H530 H 0.37993 -0.04755 0.35126
 H531 H 0.37898 0.04816 0.34960
 H532 H 0.41915 0.04794 0.31246
 C533 C 0.22655 0.50000 0.96774
 C534 C 0.21012 0.50014 0.94665
 C535 C 0.18977 0.50033 0.92205
 C536 C 0.17847 0.52729 0.91147
 C537 C 0.15740 0.52742 0.88868
 C538 C 0.14755 0.50058 0.87639
 C539 C 0.15914 0.47364 0.88671
 C540 C 0.18020 0.47351 0.90950
 C541 C 0.12472 0.50065 0.85407
 C542 C 0.10517 0.50074 0.83582
 H543 H 0.18561 0.54815 0.92112
 H544 H 0.14850 0.54837 0.88096
 H545 H 0.15158 0.45275 0.87744
 H546 H 0.18869 0.45253 0.91761
 C547 C 0.53310 0.00004 0.27378
 C548 C 0.55414 -0.00002 0.29027
 C549 C 0.57867 -0.00015 0.31070
 C550 C 0.59001 -0.02714 0.32115
 C551 C 0.61271 -0.02728 0.34231
 C552 C 0.62415 -0.00043 0.35310
 C553 C 0.61307 0.02656 0.34236
 C554 C 0.59037 0.02670 0.32120
 C555 C 0.64636 -0.00058 0.37603
 C556 C 0.66452 -0.00072 0.39567
 H557 H 0.58102 -0.04803 0.31328
 H558 H 0.62103 -0.04828 0.35055
 H559 H 0.62168 0.04745 0.35064
 H560 H 0.58166 0.04770 0.31337
 C561 C 0.77369 0.50047 0.03207
 C562 C 0.79014 0.50063 0.05314
 C563 C 0.81051 0.50083 0.07772
 C564 C 0.82245 0.52773 0.08783
 C565 C 0.84353 0.52781 0.11060
 C566 C 0.85277 0.50099 0.12334
 C567 C 0.84054 0.47412 0.11350
 C568 C 0.81946 0.47404 0.09072
 C569 C 0.87559 0.50098 0.14566
 C570 C 0.89515 0.50098 0.16391
 H571 H 0.81580 0.54855 0.07783
 H572 H 0.85293 0.54870 0.11796
 H573 H 0.84761 0.45325 0.12312
 H574 H 0.81047 0.45311 0.08297
 C575 C 0.46662 0.00002 0.72643
 C576 C 0.44557 -0.00003 0.70996
 C577 C 0.42101 -0.00013 0.68956
 C578 C 0.40970 -0.02709 0.67892
 C579 C 0.38698 -0.02718 0.65778
 C580 C 0.37548 -0.00030 0.64720
 C581 C 0.38652 0.02666 0.65814
 C582 C 0.40924 0.02675 0.67927
 C583 C 0.35326 -0.00039 0.62428
 C584 C 0.33510 -0.00047 0.60464
 H585 H 0.41875 -0.04800 0.68661
 H586 H 0.37870 -0.04816 0.64939
 H587 H 0.37786 0.04757 0.65002
 H588 H 0.41792 0.04773 0.68724
   
