data_POSCAR
  _audit_creation_date              2014-09-24
  _audit_creation_method            'ToBaCCo'
  _symmetry_space_group_name_H-M    'P1'
  _symmetry_Int_Tables_number       1
  _symmetry_cell_setting            triclinic
  loop_
  _symmetry_equiv_pos_as_xyz
 x,y,z
_cell_length_a 52.9779
_cell_length_b 53.1817
_cell_length_c 49.2975
_cell_angle_alpha 90.177000
_cell_angle_beta 89.139000
_cell_angle_gamma 91.289200
loop_
  _atom_site_label
  _atom_site_type_symbol
  _atom_site_fract_x
  _atom_site_fract_y
  _atom_site_fract_z
N1 N 0.19399 0.21562 0.25192
 N2 N 0.21573 0.20460 0.25499
 C3 C 0.21544 0.19219 0.27876
 C4 C 0.19224 0.19573 0.29128
 C5 C 0.17920 0.21091 0.27383
 H6 H 0.23054 0.18064 0.28583
 H7 H 0.15990 0.21688 0.27619
 Cu8 Cu 0.24145 0.20559 0.22663
 Cu9 Cu 0.18550 0.23286 0.21854
 Cu10 Cu 0.22715 0.22617 0.16438
 N11 N 0.26173 0.19711 0.19505
 N12 N 0.25557 0.20428 0.17057
 C13 C 0.27116 0.19354 0.15229
 C14 C 0.28801 0.17901 0.16622
 C15 C 0.28161 0.18187 0.19332
 H16 H 0.27000 0.19571 0.13054
 H17 H 0.28996 0.17258 0.21039
 N18 N 0.19697 0.24717 0.16270
 N19 N 0.18058 0.24885 0.18305
 C20 C 0.16141 0.26330 0.17543
 C21 C 0.16617 0.27139 0.14924
 C22 C 0.18890 0.26097 0.14177
 H23 H 0.14533 0.26797 0.18808
 H24 H 0.19856 0.26296 0.12240
 H25 H 0.20694 0.20870 0.19526
 H26 H 0.22167 0.24014 0.20329
 N27 N -0.14780 0.79284 0.23387
 N28 N -0.15277 0.81421 0.22195
 C29 C -0.13816 0.83265 0.23257
 C30 C -0.12348 0.82228 0.25239
 C31 C -0.13009 0.79699 0.25278
 H32 H -0.13892 0.85230 0.22712
 H33 H -0.12280 0.78274 0.26598
 Cu34 Cu -0.17961 0.81673 0.19579
 Cu35 Cu -0.16499 0.76147 0.22411
 Cu36 Cu -0.20681 0.76421 0.17105
 N37 N -0.21200 0.81730 0.17783
 N38 N -0.22312 0.79660 0.16889
 C39 C -0.24510 0.80243 0.15734
 C40 C -0.24771 0.82825 0.15900
 C41 C -0.22636 0.83708 0.17211
 H42 H -0.25785 0.78900 0.14787
 H43 H -0.22162 0.85642 0.17711
 N44 N -0.19290 0.73250 0.18375
 N45 N -0.17711 0.73142 0.20416
 C46 C -0.16813 0.70797 0.20555
 C47 C -0.17878 0.69371 0.18503
 C48 C -0.19454 0.70978 0.17175
 H49 H -0.15331 0.70232 0.21895
 H50 H -0.20474 0.70580 0.15333
 H51 H -0.17021 0.77327 0.18504
 H52 H -0.19812 0.77604 0.20856
 N53 N -0.20880 0.21370 -0.29528
 N54 N -0.22546 0.19503 -0.29375
 C55 C -0.22065 0.17839 -0.31377
 C56 C -0.19985 0.18716 -0.32847
 C57 C -0.19287 0.20963 -0.31626
 H58 H -0.23056 0.16059 -0.31655
 H59 H -0.17654 0.22136 -0.32131
 Cu60 Cu -0.24976 0.19315 -0.26373
 Cu61 Cu -0.20675 0.23996 -0.26768
 Cu62 Cu -0.25286 0.23922 -0.21706
 N63 N -0.27406 0.19134 -0.23377
 N64 N -0.27523 0.20955 -0.21569
 C65 C -0.29244 0.20319 -0.19639
 C66 C -0.30254 0.17972 -0.20270
 C67 C -0.29056 0.17278 -0.22662
 H68 H -0.29669 0.21443 -0.17864
 H69 H -0.29311 0.15520 -0.23743
 N70 N -0.22816 0.26729 -0.22199
 N71 N -0.21051 0.26753 -0.24121
 C72 C -0.19558 0.28816 -0.23807
 C73 C -0.20413 0.30137 -0.21572
 C74 C -0.22482 0.28769 -0.20606
 H75 H -0.17904 0.29272 -0.25036
 H76 H -0.23588 0.29177 -0.18803
 H77 H -0.22383 0.22070 -0.23527
 H78 H -0.24473 0.23836 -0.25824
 N79 N 0.17614 0.80356 -0.23421
 N80 N 0.18849 0.82494 -0.23022
 C81 C 0.17890 0.84277 -0.24603
 C82 C 0.15975 0.83192 -0.26105
 C83 C 0.15856 0.80693 -0.25329
 H84 H 0.18531 0.86222 -0.24657
 H85 H 0.14535 0.79257 -0.26019
 Cu86 Cu 0.21629 0.82753 -0.20526
 Cu87 Cu 0.18306 0.77390 -0.21249
 Cu88 Cu 0.21428 0.78833 -0.15263
 N89 N 0.24307 0.82775 -0.17897
 N90 N 0.24219 0.81256 -0.15797
 C91 C 0.26228 0.81751 -0.14223
 C92 C 0.27650 0.83674 -0.15426
 C93 C 0.26378 0.84275 -0.17754
 H94 H 0.26607 0.80800 -0.12340
 H95 H 0.26897 0.85724 -0.19207
 N96 N 0.19274 0.75798 -0.15721
 N97 N 0.18250 0.75159 -0.18058
 C98 C 0.16940 0.72979 -0.17743
 C99 C 0.17119 0.72237 -0.15071
 C100 C 0.18609 0.74063 -0.13843
 H101 H 0.15812 0.72081 -0.19296
 H102 H 0.19143 0.74137 -0.11735
 H103 H 0.18758 0.79856 -0.18136
 H104 H 0.21710 0.78307 -0.19298
 N105 N 0.21789 1.17243 0.76326
 N106 N 0.19637 1.18396 0.76661
 C107 C 0.18226 1.18064 0.74444
 C108 C 0.19541 1.16597 0.72622
 C109 C 0.21799 1.16098 0.73876
 H110 H 0.16351 1.18787 0.74197
 H111 H 0.23313 1.14964 0.73084
 Cu112 Cu 0.18779 1.20146 0.79980
 Cu113 Cu 0.24342 1.17279 0.79162
 Cu114 Cu 0.22971 1.20819 0.84920
 N115 N 0.18438 1.22730 0.82728
 N116 N 0.20134 1.23066 0.84621
 C117 C 0.19413 1.24955 0.86268
 C118 C 0.17134 1.25823 0.85355
 C119 C 0.16572 1.24370 0.83109
 H120 H 0.20419 1.25586 0.88047
 H121 H 0.14916 1.24483 0.81863
 N122 N 0.26070 1.18870 0.84506
 N123 N 0.26633 1.17568 0.82299
 C124 C 0.28817 1.16374 0.82700
 C125 C 0.29639 1.16938 0.85286
 C126 C 0.27859 1.18523 0.86368
 H127 H 0.29680 1.15091 0.81276
 H128 H 0.27837 1.19305 0.88395
 H129 H 0.21966 1.17799 0.82407
 H130 H 0.23271 1.20707 0.80758
 N131 N 0.80972 0.81770 0.75755
 N132 N 0.82103 0.79695 0.75018
 C133 C 0.83918 0.80261 0.73162
 C134 C 0.83937 0.82830 0.72742
 C135 C 0.82047 0.83730 0.74419
 H136 H 0.85174 0.78916 0.72241
 H137 H 0.81506 0.85668 0.74658
 Cu138 Cu 0.81211 0.76479 0.76672
 Cu139 Cu 0.78223 0.81781 0.78423
 Cu140 Cu 0.77321 0.76333 0.82147
 N141 N 0.80992 0.73581 0.79061
 N142 N 0.79470 0.73535 0.81193
 C143 C 0.79744 0.71357 0.82527
 C144 C 0.81544 0.69974 0.81168
 C145 C 0.82302 0.71438 0.78977
 H146 H 0.78761 0.70846 0.84390
 H147 H 0.83741 0.71006 0.77478
 N148 N 0.75320 0.79364 0.82768
 N149 N 0.75572 0.81395 0.81246
 C150 C 0.73857 0.83081 0.82059
 C151 C 0.72500 0.82078 0.84225
 C152 C 0.73477 0.79728 0.84634
 H153 H 0.73646 0.84927 0.81187
 H154 H 0.72861 0.78374 0.86150
 H155 H 0.79887 0.78945 0.80566
 H156 H 0.77171 0.77998 0.78365
 N157 N 0.19463 0.81221 1.22641
 N158 N 0.17338 0.80601 1.21438
 C159 C 0.15386 0.81501 1.22899
 C160 C 0.16343 0.82726 1.25149
 C161 C 0.18934 0.82508 1.24929
 H162 H 0.13420 0.81273 1.22371
 H163 H 0.20329 0.83302 1.26284
 Cu164 Cu 0.17290 0.78630 1.18112
 Cu165 Cu 0.22745 0.80563 1.20982
 Cu166 Cu 0.22762 0.76353 1.15654
 N167 N 0.17370 0.75802 1.15606
 N168 N 0.19504 0.74851 1.14732
 C169 C 0.18993 0.72859 1.13122
 C170 C 0.16401 0.72562 1.12972
 C171 C 0.15427 0.74461 1.14565
 H172 H 0.20398 0.71724 1.12120
 H173 H 0.13455 0.74813 1.14975
 N174 N 0.25844 0.78108 1.16897
 N175 N 0.25847 0.79686 1.18969
 C176 C 0.28146 0.80804 1.19130
 C177 C 0.29650 0.79900 1.17047
 C178 C 0.28135 0.78188 1.15678
 H179 H 0.28631 0.82315 1.20515
 H180 H 0.28615 0.77212 1.13819
 H181 H 0.21624 0.79871 1.17033
 H182 H 0.21357 0.77176 1.19497
 N183 N 0.78262 1.20611 1.29391
 N184 N 0.80101 1.22311 1.29264
 C185 C 0.81856 1.21753 1.31102
 C186 C 0.81081 1.19583 1.32436
 C187 C 0.78791 1.18909 1.31307
 H188 H 0.83615 1.22785 1.31381
 H189 H 0.77658 1.17241 1.31757
 Cu190 Cu 0.80131 1.25013 1.26612
 Cu191 Cu 0.75488 1.20539 1.26844
 Cu192 Cu 0.75675 1.25096 1.21844
 N193 N 0.79827 1.27849 1.24158
 N194 N 0.78041 1.27888 1.22339
 C195 C 0.78360 1.29949 1.20789
 C196 C 0.80468 1.31267 1.21671
 C197 C 0.81354 1.29890 1.23818
 H198 H 0.77234 1.30378 1.19044
 H199 H 0.83053 1.30281 1.24948
 N200 N 0.73022 1.22466 1.22073
 N201 N 0.72901 1.20770 1.24022
 C202 C 0.70952 1.19166 1.23542
 C203 C 0.69808 1.19889 1.21176
 C204 C 0.71159 1.21990 1.20305
 H205 H 0.70478 1.17516 1.24738
 H206 H 0.70857 1.23034 1.18464
 H207 H 0.77543 1.22198 1.23789
 H208 H 0.75622 1.24355 1.25943
 O209 O 0.52666 0.96475 0.97789
 O210 O 0.48989 0.96957 1.07059
 O211 O 0.56541 0.99180 1.04185
 O212 O 0.48130 0.96401 0.98570
 O213 O 0.53770 0.97074 1.06706
 O214 O 0.49254 0.98469 0.94987
 O215 O 0.48077 0.95348 1.03204
 O216 O 0.56066 0.98372 0.99311
 C217 C 0.55001 0.96486 0.98182
 C218 C 0.48140 0.95156 1.05699
 C219 C 0.55992 0.97434 1.05853
 C220 C 0.47685 0.96876 0.96117
 O221 O 0.49648 1.02527 0.97704
 O222 O 0.53723 1.01907 1.07209
 O223 O 0.54245 1.03255 0.98878
 O224 O 0.46141 0.99904 1.04560
 O225 O 0.49002 1.01857 1.06991
 O226 O 0.53645 1.00704 0.95742
 O227 O 0.46359 1.01075 0.99791
 O228 O 0.54615 1.03850 1.03516
 Co229 Co 0.51072 0.99473 0.97917
 Co230 Co 0.51360 0.99469 1.06515
 Co231 Co 0.55058 1.01041 1.01490
 Co232 Co 0.47520 0.98316 1.01565
 O233 O 0.51353 0.99672 1.02047
 C234 C 0.47398 1.02755 0.98366
 C235 C 0.54527 1.03829 1.06023
 C236 C 0.54618 1.02722 0.96462
 C237 C 0.46766 1.01598 1.06240
 O238 O 0.01642 0.46523 0.02788
 O239 O 0.01679 0.51012 -0.04780
 O240 O -0.01235 0.43682 -0.04083
 O241 O -0.00852 0.54145 0.00894
 O242 O 0.01562 0.46498 -0.04956
 O243 O 0.01829 0.51339 0.02052
 O244 O -0.00931 0.53937 -0.03979
 O245 O -0.00802 0.43620 0.00913
 C246 C 0.01156 0.44267 0.02204
 C247 C 0.01259 0.53285 -0.04593
 C248 C 0.00992 0.44245 -0.04704
 C249 C 0.01328 0.53584 0.01637
 O250 O -0.02833 0.51509 0.04230
 O251 O -0.03265 0.46591 -0.06896
 O252 O -0.05518 0.44969 0.01549
 O253 O -0.05628 0.51701 -0.03685
 O254 O -0.03003 0.51149 -0.06929
 O255 O -0.03057 0.46871 0.04494
 O256 O -0.05585 0.52157 0.01184
 O257 O -0.05825 0.45555 -0.03591
 Co258 Co -0.00715 0.49067 0.02928
 Co259 Co -0.00865 0.48815 -0.05517
 Co260 Co -0.03226 0.44879 -0.01330
 Co261 Co -0.03145 0.52648 -0.01408
 O262 O -0.01975 0.48846 -0.01312
 C263 C -0.05027 0.52102 0.03613
 C264 C -0.05419 0.45843 -0.06067
 C265 C -0.05016 0.45582 0.03935
 C266 C -0.05170 0.51729 -0.06148
 O267 O 1.06891 0.02006 0.47132
 O268 O 0.96163 0.01888 0.51519
 O269 O 0.99437 0.04432 0.45977
 O270 O 1.03785 0.04582 0.53173
 O271 O 0.96555 0.01623 0.46527
 O272 O 1.06772 0.02038 0.52060
 O273 O 0.98927 0.04299 0.53647
 O274 O 1.03925 0.04562 0.46458
 C275 C 1.06211 0.04179 0.46569
 C276 C 0.96714 0.03823 0.52912
 C277 C 0.97166 0.03854 0.46022
 C278 C 1.06079 0.04142 0.52954
 O279 O 1.04876 -0.02748 0.52064
 O280 O 0.98477 -0.02965 0.46873
 O281 O 1.04223 -0.00041 0.44035
 O282 O 0.99246 -0.00407 0.55141
 O283 O 0.97569 -0.02813 0.51988
 O284 O 1.04770 -0.02716 0.47174
 O285 O 1.03912 -0.00070 0.55132
 O286 O 0.99689 -0.00279 0.43796
 Co287 Co 1.05476 -0.00252 0.49587
 Co288 Co 0.97619 -0.00452 0.49227
 Co289 Co 1.01807 0.02054 0.45424
 Co290 Co 1.01504 0.01993 0.53810
 O291 O 1.01587 0.00813 0.49525
 C292 C 1.04538 -0.02247 0.54497
 C293 C 0.98975 -0.02474 0.44450
 C294 C 1.04754 -0.02224 0.44725
 C295 C 0.97994 -0.02344 0.54431
 C296 C 1.16309 0.15995 0.35883
 N297 N 1.14964 0.17754 0.34583
 N298 N 1.15933 0.18952 0.32428
 C299 C 1.18291 0.18444 0.31494
 N300 N 1.19660 0.16720 0.32829
 N301 N 1.18682 0.15507 0.34976
 C302 C 1.15115 0.14503 0.38070
 N303 N 1.16202 0.12391 0.39005
 N304 N 1.14970 0.10891 0.40765
 C305 C 1.12613 0.11458 0.41660
 N306 N 1.11554 0.13597 0.40767
 N307 N 1.12779 0.15089 0.39004
 C308 C 1.11094 0.09668 0.43297
 N309 N 1.08667 0.10199 0.43943
 N310 N 1.07153 0.08475 0.45104
 C311 C 1.08007 0.06152 0.45669
 N312 N 1.10455 0.05632 0.45087
 N313 N 1.11973 0.07361 0.43918
 C314 C 0.92362 -0.13793 0.30541
 N315 N 0.91519 -0.12696 0.28254
 N316 N 0.90051 -0.13980 0.26546
 C317 C 0.89384 -0.16414 0.27053
 N318 N 0.90255 -0.17525 0.29321
 N319 N 0.91709 -0.16234 0.31042
 C320 C 0.93806 -0.12302 0.32518
 N321 N 0.94194 -0.13193 0.35053
 N322 N 0.95309 -0.11745 0.36916
 C323 C 0.96092 -0.09362 0.36303
 N324 N 0.95743 -0.08490 0.33755
 N325 N 0.94615 -0.09931 0.31899
 C326 C 0.97089 -0.07673 0.38409
 N327 N 0.97936 -0.05322 0.37753
 N328 N 0.98613 -0.03693 0.39680
 C329 C 0.98455 -0.04351 0.42335
 N330 N 0.97645 -0.06714 0.42994
 N331 N 0.96977 -0.08348 0.41064
 C332 C 0.84297 0.14741 0.61461
 N333 N 0.85055 0.17065 0.62306
 N334 N 0.83651 0.18357 0.64058
 C335 C 0.81438 0.17371 0.65041
 N336 N 0.80660 0.15058 0.64172
 N337 N 0.82064 0.13766 0.62412
 C338 C 0.85976 0.13240 0.59735
 N339 N 0.85263 0.10906 0.58866
 N340 N 0.86883 0.09477 0.57494
 C341 C 0.89273 0.10330 0.56953
 N342 N 0.89970 0.12673 0.57795
 N343 N 0.88351 0.14102 0.59153
 C344 C 0.91156 0.08691 0.55694
 N345 N 0.93635 0.09382 0.55735
 N346 N 0.95390 0.07841 0.54797
 C347 C 0.94735 0.05555 0.53765
 N348 N 0.92251 0.04872 0.53678
 N349 N 0.90491 0.06410 0.54639
 C350 C 1.11537 -0.12987 0.68399
 N351 N 1.11658 -0.15535 0.68289
 N352 N 1.13041 -0.16773 0.70065
 C353 C 1.14373 -0.15499 0.71982
 N354 N 1.14250 -0.12957 0.72084
 N355 N 1.12848 -0.11726 0.70335
 C356 C 1.10103 -0.11576 0.66416
 N357 N 1.09586 -0.09128 0.66900
 N358 N 1.08438 -0.07766 0.65047
 C359 C 1.07784 -0.08793 0.62630
 N360 N 1.08283 -0.11251 0.62146
 N361 N 1.09414 -0.12623 0.64013
 C362 C 1.06722 -0.07200 0.60530
 N363 N 1.06621 -0.07976 0.57905
 N364 N 1.05869 -0.06421 0.55976
 C365 C 1.05185 -0.04041 0.56610
 N366 N 1.05246 -0.03286 0.59238
 N367 N 1.06009 -0.04833 0.61160
 C368 C 0.34170 1.13215 1.13482
 N369 N 0.33955 1.13590 1.16198
 N370 N 0.32220 1.15119 1.17210
 C371 C 0.30652 1.16352 1.15544
 N372 N 0.30885 1.15997 1.12822
 N373 N 0.32605 1.14446 1.11810
 C374 C 0.36046 1.11481 1.12387
 N375 N 0.35869 1.10581 1.09815
 N376 N 0.37551 1.08968 1.08848
 C377 C 0.39482 1.08217 1.10411
 N378 N 0.39666 1.09129 1.12977
 N379 N 0.37970 1.10720 1.13952
 C380 C 0.41353 1.06462 1.09347
 N381 N 0.43591 1.06204 1.10610
 N382 N 0.45311 1.04642 1.09627
 C383 C 0.44841 1.03256 1.07367
 N384 N 0.42595 1.03499 1.06114
 N385 N 0.40885 1.05082 1.07081
 C386 C 0.34055 0.87182 0.87458
 N387 N 0.32924 0.85259 0.88856
 N388 N 0.30860 0.84102 0.87911
 C389 C 0.29847 0.84831 0.85534
 N390 N 0.30989 0.86745 0.84128
 N391 N 0.33055 0.87900 0.85072
 C392 C 0.36265 0.88518 0.88567
 N393 N 0.37391 0.90472 0.87211
 N394 N 0.39330 0.91745 0.88289
 C395 C 0.40207 0.91107 0.90762
 N396 N 0.39090 0.89143 0.92103
 N397 N 0.37158 0.87871 0.91026
 C398 C 0.42245 0.92566 0.92054
 N399 N 0.42887 0.92026 0.94635
 N400 N 0.44647 0.93392 0.95893
 C401 C 0.45842 0.95347 0.94618
 N402 N 0.45222 0.95885 0.92024
 N403 N 0.43447 0.94518 0.90764
 C404 C 0.69505 0.87050 1.12916
 N405 N 0.71579 0.88176 1.14008
 N406 N 0.73422 0.86802 1.14996
 C407 C 0.73275 0.84251 1.14903
 N408 N 0.71203 0.83124 1.13801
 N409 N 0.69345 0.84499 1.12839
 C410 C 0.67482 0.88574 1.11826
 N411 N 0.65154 0.87547 1.11386
 N412 N 0.63316 0.88945 1.10419
 C413 C 0.63750 0.91411 1.09829
 N414 N 0.66082 0.92432 1.10253
 N415 N 0.67911 0.91042 1.11248
 C416 C 0.61731 0.92958 1.08767
 N417 N 0.62291 0.95187 1.07540
 N418 N 0.60461 0.96603 1.06590
 C419 C 0.58004 0.95854 1.06863
 N420 N 0.57443 0.93629 1.08098
 N421 N 0.59275 0.92199 1.09021
 C422 C 0.64771 1.13702 0.84355
 N423 N 0.65527 1.16031 0.85192
 N424 N 0.67114 1.17428 0.83675
 C425 C 0.68012 1.16547 0.81267
 N426 N 0.67243 1.14223 0.80423
 N427 N 0.65651 1.12828 0.81938
 C428 C 0.63099 1.12126 0.86081
 N429 N 0.62290 1.09820 0.85227
 N430 N 0.60845 1.08358 0.86834
 C431 C 0.60162 1.09147 0.89357
 N432 N 0.60963 1.11457 0.90206
 N433 N 0.62402 1.12921 0.88597
 C434 C 0.58648 1.07504 0.91172
 N435 N 0.58162 1.08212 0.93773
 N436 N 0.56859 1.06694 0.95450
 C437 C 0.55988 1.04414 0.94586
 N438 N 0.56459 1.03708 0.91982
 N439 N 0.57770 1.05225 0.90306
 C440 C 0.12098 0.31860 0.10398
 N441 N 0.11093 0.30475 0.12472
 N442 N 0.12536 0.28970 0.13909
 C443 C 0.15030 0.28771 0.13303
 N444 N 0.16034 0.30135 0.11210
 N445 N 0.14597 0.31667 0.09796
 C446 C 0.10518 0.33591 0.08898
 N447 N 0.11566 0.35605 0.07580
 N448 N 0.10114 0.37248 0.06341
 C449 C 0.07565 0.36917 0.06342
 N450 N 0.06521 0.34885 0.07628
 N451 N 0.07970 0.33261 0.08898
 C452 C 0.05951 0.38788 0.05101
 N453 N 0.03539 0.38178 0.04423
 N454 N 0.02031 0.39912 0.03431
 C455 C 0.02870 0.42325 0.03117
 N456 N 0.05283 0.42934 0.03788
 N457 N 0.06802 0.41193 0.04746
 C458 C -0.16714 0.36152 -0.17707
 N459 N -0.15825 0.35251 -0.20109
 N460 N -0.17037 0.33375 -0.21375
 C461 C -0.19183 0.32331 -0.20286
 N462 N -0.20090 0.33254 -0.17902
 N463 N -0.18877 0.35128 -0.16635
 C464 C -0.15263 0.38061 -0.16187
 N465 N -0.16026 0.38757 -0.13659
 N466 N -0.14602 0.40314 -0.12175
 C467 C -0.12366 0.41241 -0.13166
 N468 N -0.11621 0.40579 -0.15713
 N469 N -0.13043 0.39016 -0.17196
 C470 C -0.10676 0.42724 -0.11409
 N471 N -0.08394 0.43589 -0.12346
 N472 N -0.06753 0.44690 -0.10667
 C473 C -0.07334 0.44959 -0.07991
 N474 N -0.09633 0.44135 -0.07068
 N475 N -0.11274 0.43044 -0.08746
 C476 C 0.13108 0.66269 -0.11411
 N477 N 0.13650 0.66229 -0.14111
 N478 N 0.14950 0.68120 -0.15272
 C479 C 0.15787 0.70103 -0.13768
 N480 N 0.15275 0.70128 -0.11061
 N481 N 0.13944 0.68253 -0.09906
 C482 C 0.11551 0.64252 -0.10174
 N483 N 0.10225 0.64666 -0.07842
 N484 N 0.08694 0.62880 -0.06807
 C485 C 0.08463 0.60605 -0.08047
 N486 N 0.09816 0.60180 -0.10356
 N487 N 0.11320 0.61977 -0.11411
 C488 C 0.06682 0.58678 -0.06999
 N489 N 0.06907 0.56236 -0.07753
 N490 N 0.05211 0.54505 -0.06927
 C491 C 0.03210 0.55161 -0.05348
 N492 N 0.02987 0.57603 -0.04587
 N493 N 0.04702 0.59328 -0.05383
 C494 C -0.15184 0.62628 0.15349
 N495 N -0.14159 0.63657 0.17616
 N496 N -0.15085 0.65752 0.18691
 C497 C -0.17064 0.66897 0.17534
 N498 N -0.18117 0.65842 0.15299
 N499 N -0.17195 0.63745 0.14227
 C500 C -0.13971 0.60521 0.13953
 N501 N -0.14892 0.59647 0.11567
 N502 N -0.13635 0.57955 0.10118
 C503 C -0.11408 0.57072 0.10999
 N504 N -0.10509 0.57907 0.13413
 N505 N -0.11769 0.59601 0.14864
 C506 C -0.09870 0.55481 0.09216
 N507 N -0.07547 0.54744 0.09977
 N508 N -0.06034 0.53567 0.08227
 C509 C -0.06789 0.53092 0.05651
 N510 N -0.09129 0.53785 0.04910
 N511 N -0.10642 0.54955 0.06660
 C512 C 1.16562 0.13778 0.65383
 N513 N 1.18769 0.12890 0.66328
 N514 N 1.19768 0.13823 0.68599
 C515 C 1.18585 0.15665 0.70010
 N516 N 1.16397 0.16562 0.69047
 N517 N 1.15407 0.15641 0.66778
 C518 C 1.15313 0.12634 0.63022
 N519 N 1.13081 0.13536 0.62182
 N520 N 1.11798 0.12382 0.60220
 C521 C 1.12699 0.10281 0.59017
 N522 N 1.14956 0.09398 0.59821
 N523 N 1.16242 0.10556 0.61788
 C524 C 1.11114 0.08849 0.57106
 N525 N 1.11905 0.06650 0.56013
 N526 N 1.10337 0.05207 0.54559
 C527 C 1.07923 0.05907 0.54150
 N528 N 1.07152 0.08130 0.55194
 N529 N 1.08719 0.09576 0.56638
 C530 C 0.88745 -0.12949 0.67616
 N531 N 0.88560 -0.15489 0.67355
 N532 N 0.87045 -0.16839 0.69002
 C533 C 0.85638 -0.15693 0.70949
 N534 N 0.85818 -0.13153 0.71205
 N535 N 0.87351 -0.11807 0.69576
 C536 C 0.90368 -0.11452 0.65764
 N537 N 0.90933 -0.09004 0.66324
 N538 N 0.92336 -0.07621 0.64600
 C539 C 0.93207 -0.08630 0.62242
 N540 N 0.92646 -0.11080 0.61685
 N541 N 0.91263 -0.12469 0.63421
 C542 C 0.94611 -0.07063 0.60261
 N543 N 0.94870 -0.07838 0.57648
 N544 N 0.95994 -0.06352 0.55803
 C545 C 0.96927 -0.04047 0.56508
 N546 N 0.96704 -0.03286 0.59131
 N547 N 0.95556 -0.04763 0.60972
 C548 C 1.12358 -0.13331 0.31119
 N549 N 1.11273 -0.13899 0.28709
 N550 N 1.12529 -0.15188 0.26820
 C551 C 1.14926 -0.15926 0.27261
 N552 N 1.16011 -0.15352 0.29668
 N553 N 1.14745 -0.14091 0.31568
 C554 C 1.11007 -0.11858 0.33182
 N555 N 1.11792 -0.11820 0.35790
 N556 N 1.10628 -0.10418 0.37648
 C557 C 1.08653 -0.08980 0.36960
 N558 N 1.07865 -0.09018 0.34351
 N559 N 1.09012 -0.10444 0.32499
 C560 C 1.07481 -0.07322 0.38982
 N561 N 1.06106 -0.05332 0.38197
 N562 N 1.05197 -0.03728 0.40030
 C563 C 1.05604 -0.04073 0.42714
 N564 N 1.06942 -0.06085 0.43501
 N565 N 1.07875 -0.07672 0.41668
 C566 C 0.85381 0.15339 0.37706
 N567 N 0.83045 0.14517 0.36969
 N568 N 0.81648 0.15894 0.35337
 C569 C 0.82539 0.18141 0.34383
 N570 N 0.84862 0.18975 0.35146
 N571 N 0.86258 0.17600 0.36776
 C572 C 0.87003 0.13748 0.39335
 N573 N 0.89393 0.14522 0.39918
 N574 N 0.90934 0.13016 0.41228
 C575 C 0.90143 0.10679 0.42007
 N576 N 0.87742 0.09913 0.41453
 N577 N 0.86200 0.11420 0.40140
 C578 C 0.91914 0.08956 0.43253
 N579 N 0.91173 0.06578 0.43943
 N580 N 0.92833 0.04964 0.44889
 C581 C 0.95294 0.05670 0.45172
 N582 N 0.96027 0.08055 0.44515
 N583 N 0.94368 0.09668 0.43574
 C584 C 0.12521 0.31281 -0.11186
 N585 N 0.11582 0.29576 -0.12980
 N586 N 0.13064 0.27853 -0.14088
 C587 C 0.15535 0.27752 -0.13421
 N588 N 0.16477 0.29449 -0.11614
 N589 N 0.14998 0.31195 -0.10527
 C590 C 0.10862 0.33181 -0.10003
 N591 N 0.11825 0.35301 -0.08829
 N592 N 0.10292 0.37052 -0.07849
 C593 C 0.07746 0.36729 -0.07981
 N594 N 0.06790 0.34598 -0.09130
 N595 N 0.08319 0.32863 -0.10134
 C596 C 0.06035 0.38670 -0.06987
 N597 N 0.03539 0.38119 -0.06628
 N598 N 0.01946 0.39891 -0.05849
 C599 C 0.02786 0.42287 -0.05429
 N600 N 0.05285 0.42842 -0.05775
 N601 N 0.06884 0.41060 -0.06531
 C602 C -0.15781 0.37035 0.17396
 N603 N -0.14768 0.36095 0.19685
 N604 N -0.15998 0.34313 0.21110
 C605 C -0.18283 0.33410 0.20292
 N606 N -0.19311 0.34383 0.18033
 N607 N -0.18083 0.36160 0.16611
 C608 C -0.14327 0.38773 0.15636
 N609 N -0.15231 0.39382 0.13169
 N610 N -0.13827 0.40738 0.11429
 C611 C -0.11468 0.41546 0.12091
 N612 N -0.10576 0.40980 0.14579
 N613 N -0.11979 0.39612 0.16320
 C614 C -0.09849 0.42797 0.10040
 N615 N -0.07544 0.43782 0.10676
 N616 N -0.06017 0.44738 0.08745
 C617 C -0.06736 0.44717 0.06111
 N618 N -0.09047 0.43750 0.05486
 N619 N -0.10577 0.42817 0.07414
 C620 C -0.15384 0.63255 -0.16182
 N621 N -0.17390 0.64264 -0.14863
 N622 N -0.18395 0.66377 -0.15744
 C623 C -0.17433 0.67563 -0.17975
 N624 N -0.15446 0.66540 -0.19317
 N625 N -0.14436 0.64426 -0.18433
 C626 C -0.14148 0.61055 -0.15053
 N627 N -0.11985 0.60180 -0.16185
 N628 N -0.10737 0.58344 -0.14997
 C629 C -0.11612 0.57315 -0.12635
 N630 N -0.13798 0.58161 -0.11533
 N631 N -0.15043 0.59993 -0.12720
 C632 C -0.10084 0.55540 -0.11125
 N633 N -0.10815 0.54820 -0.08589
 N634 N -0.09292 0.53490 -0.07054
 C635 C -0.06984 0.52820 -0.08001
 N636 N -0.06275 0.53482 -0.10564
 N637 N -0.07798 0.54821 -0.12098
 C638 C 0.12288 0.67033 0.08774
 N639 N 0.11132 0.69086 0.09804
 N640 N 0.12447 0.70847 0.11136
 C641 C 0.14969 0.70629 0.11470
 N642 N 0.16132 0.68584 0.10423
 N643 N 0.14813 0.66811 0.09109
 C644 C 0.10803 0.65065 0.07388
 N645 N 0.11790 0.62777 0.06850
 N646 N 0.10384 0.60961 0.05712
 C647 C 0.07949 0.61378 0.05052
 N648 N 0.06977 0.63673 0.05562
 N649 N 0.08374 0.65480 0.06715
 C650 C 0.06330 0.59354 0.03951
 N651 N 0.03975 0.59870 0.03098
 N652 N 0.02417 0.58029 0.02287
 C653 C 0.03148 0.55601 0.02312
 N654 N 0.05515 0.55081 0.03135
 N655 N 0.07082 0.56928 0.03935
 C656 C 0.35603 1.13730 0.89420
 N657 N 0.33774 1.14979 0.90787
 N658 N 0.31906 1.16041 0.89458
 C659 C 0.31781 1.15870 0.86715
 N660 N 0.33612 1.14624 0.85344
 N661 N 0.35497 1.13583 0.86672
 C662 C 0.37582 1.12447 0.90907
 N663 N 0.39678 1.11614 0.89599
 N664 N 0.41404 1.10337 0.90932
 C665 C 0.41085 1.09829 0.93616
 N666 N 0.38995 1.10672 0.94924
 N667 N 0.37284 1.11971 0.93599
 C668 C 0.42859 1.08215 0.95022
 N669 N 0.42136 1.07013 0.97342
 N670 N 0.43632 1.05344 0.98474
 C671 C 0.45922 1.04844 0.97352
 N672 N 0.46670 1.06088 0.95066
 N673 N 0.45162 1.07736 0.93915
 C674 C 0.36457 0.83156 1.14264
 N675 N 0.35477 0.83793 1.16726
 N676 N 0.33349 0.82699 1.17652
 C677 C 0.32125 0.80921 1.16153
 N678 N 0.33128 0.80252 1.13712
 N679 N 0.35251 0.81353 1.12781
 C680 C 0.38643 0.84558 1.13121
 N681 N 0.39354 0.84232 1.10488
 N682 N 0.41165 0.85686 1.09369
 C683 C 0.42339 0.87513 1.10847
 N684 N 0.41661 0.87807 1.13493
 N685 N 0.39844 0.86360 1.14609
 C686 C 0.44117 0.89308 1.09540
 N687 N 0.45240 0.91169 1.11014
 N688 N 0.46622 0.92971 1.09795
 C689 C 0.46928 0.92983 1.07056
 N690 N 0.45843 0.91098 1.05585
 N691 N 0.44467 0.89290 1.06806
 C692 C 0.64288 1.15877 1.16874
 N693 N 0.64877 1.15195 1.19437
 N694 N 0.66604 1.16499 1.20828
 C695 C 0.67796 1.18538 1.19711
 N696 N 0.67187 1.19238 1.17161
 N697 N 0.65468 1.17927 1.15764
 C698 C 0.62511 1.14336 1.15284
 N699 N 0.62194 1.14781 1.12599
 N700 N 0.60708 1.13273 1.11122
 C701 C 0.59478 1.11274 1.12281
 N702 N 0.59771 1.10851 1.14971
 N703 N 0.61262 1.12350 1.16444
 C704 C 0.57995 1.09485 1.10639
 N705 N 0.56796 1.07496 1.11847
 N706 N 0.55621 1.05746 1.10366
 C707 C 0.55600 1.05914 1.07620
 N708 N 0.56770 1.07922 1.06407
 N709 N 0.57944 1.09680 1.07892
 C710 C 0.66791 0.85568 0.88689
 N711 N 0.67233 0.86175 0.86049
 N712 N 0.69056 0.85064 0.84629
 C713 C 0.70476 0.83278 0.85786
 N714 N 0.70017 0.82651 0.88418
 N715 N 0.68220 0.83792 0.89852
 C716 C 0.64851 0.86874 0.90270
 N717 N 0.65072 0.87174 0.92993
 N718 N 0.63386 0.88493 0.94400
 C719 C 0.61396 0.89519 0.93138
 N720 N 0.61155 0.89184 0.90423
 N721 N 0.62862 0.87900 0.89011
 C722 C 0.59633 0.91120 0.94632
 N723 N 0.57285 0.91502 0.93670
 N724 N 0.55761 0.93130 0.94887
 C725 C 0.56542 0.94457 0.97087
 N726 N 0.58883 0.94063 0.98062
 N727 N 0.60394 0.92407 0.96869
   
