data_POSCAR
  _audit_creation_date              2014-09-24
  _audit_creation_method            'ToBaCCo'
  _symmetry_space_group_name_H-M    'P1'
  _symmetry_Int_Tables_number       1
  _symmetry_cell_setting            triclinic
  loop_
  _symmetry_equiv_pos_as_xyz
 x,y,z
_cell_length_a 40.3420
_cell_length_b 40.3419
_cell_length_c 40.1737
_cell_angle_alpha 89.961900
_cell_angle_beta 89.961800
_cell_angle_gamma 89.905700
loop_
  _atom_site_label
  _atom_site_type_symbol
  _atom_site_fract_x
  _atom_site_fract_y
  _atom_site_fract_z
C1 C -0.07084 0.30984 0.03015
 C2 C -0.08790 0.30946 -0.00011
 C3 C -0.07095 0.30975 -0.03046
 C4 C -0.03589 0.31075 -0.03088
 C5 C -0.01825 0.31123 -0.00031
 C6 C -0.03576 0.31087 0.03036
 C7 C -0.01773 0.31107 0.06034
 C8 C 0.01678 0.31111 0.06022
 C9 C 0.03460 0.31096 0.03015
 C10 C 0.01698 0.31126 -0.00041
 C11 C -0.01797 0.31079 -0.06095
 C12 C 0.01653 0.31079 -0.06104
 C13 C 0.03453 0.31076 -0.03105
 C14 C 0.06962 0.30977 -0.03078
 C15 C 0.08662 0.30957 -0.00048
 C16 C 0.06961 0.31001 0.02979
 H17 H -0.03019 0.31101 0.08421
 H18 H 0.02939 0.31109 0.08400
 H19 H -0.03054 0.31063 -0.08476
 H20 H 0.02902 0.31063 -0.08490
 H21 H -0.11482 0.30812 -0.00004
 H22 H 0.11352 0.30824 -0.00039
 C23 C 0.56972 0.81200 0.53026
 C24 C 0.58677 0.81171 0.49999
 C25 C 0.56981 0.81204 0.46969
 C26 C 0.53479 0.81296 0.46934
 C27 C 0.51718 0.81336 0.49992
 C28 C 0.53470 0.81296 0.53054
 C29 C 0.51674 0.81302 0.56055
 C30 C 0.48222 0.81297 0.56051
 C31 C 0.46437 0.81285 0.53046
 C32 C 0.48198 0.81328 0.49988
 C33 C 0.51694 0.81297 0.43928
 C34 C 0.48242 0.81288 0.43925
 C35 C 0.46446 0.81278 0.46926
 C36 C 0.42945 0.81167 0.46954
 C37 C 0.41240 0.81134 0.49981
 C38 C 0.42936 0.81178 0.53010
 H39 H 0.52927 0.81292 0.58437
 H40 H 0.46961 0.81284 0.58431
 H41 H 0.52955 0.81286 0.41549
 H42 H 0.46989 0.81270 0.41542
 H43 H 0.61365 0.81037 0.50001
 H44 H 0.38553 0.80990 0.49979
 C45 C 0.93096 0.68902 -0.03045
 C46 C 0.91386 0.68928 -0.00022
 C47 C 0.93078 0.68893 0.03009
 C48 C 0.96580 0.68799 0.03050
 C49 C 0.98348 0.68764 -0.00005
 C50 C 0.96598 0.68807 -0.03068
 C51 C 0.98394 0.68805 -0.06067
 C52 C 1.01845 0.68811 -0.06061
 C53 C 1.03635 0.68822 -0.03054
 C54 C 1.01869 0.68773 0.00004
 C55 C 0.98357 0.68792 0.06058
 C56 C 1.01808 0.68800 0.06069
 C57 C 1.03617 0.68818 0.03071
 C58 C 1.07123 0.68927 0.03048
 C59 C 1.08833 0.68966 0.00021
 C60 C 1.07141 0.68931 -0.03014
 H61 H 0.97143 0.68816 -0.08450
 H62 H 1.03103 0.68827 -0.08443
 H63 H 0.97092 0.68798 0.08435
 H64 H 1.03052 0.68812 0.08457
 H65 H 0.88698 0.69063 -0.00028
 H66 H 1.11524 0.69107 0.00027
 C67 C 0.43018 0.18912 0.53074
 C68 C 0.41313 0.18947 0.50049
 C69 C 0.43011 0.18910 0.47018
 C70 C 0.46512 0.18808 0.46979
 C71 C 0.48273 0.18763 0.50035
 C72 C 0.46520 0.18807 0.53099
 C73 C 0.48314 0.18796 0.56098
 C74 C 0.51766 0.18789 0.56091
 C75 C 0.53553 0.18796 0.53084
 C76 C 0.51792 0.18759 0.50028
 C77 C 0.48299 0.18801 0.43972
 C78 C 0.51751 0.18800 0.43965
 C79 C 0.53545 0.18803 0.46964
 C80 C 0.57047 0.18900 0.46989
 C81 C 0.58751 0.18927 0.50014
 C82 C 0.57054 0.18890 0.53045
 H83 H 0.47060 0.18810 0.58482
 H84 H 0.53026 0.18799 0.58470
 H85 H 0.47039 0.18817 0.41593
 H86 H 0.53005 0.18814 0.41581
 H87 H 0.38626 0.19087 0.50053
 H88 H 0.61439 0.19061 0.50009
 C89 C 0.69001 0.06986 0.02962
 C90 C 0.69040 0.08687 -0.00065
 C91 C 0.69016 0.06987 -0.03095
 C92 C 0.68918 0.03479 -0.03122
 C93 C 0.68873 0.01724 -0.00057
 C94 C 0.68907 0.03486 0.02998
 C95 C 0.68896 0.01703 0.06006
 C96 C 0.68901 -0.01747 0.06017
 C97 C 0.68917 -0.03551 0.03019
 C98 C 0.68876 -0.01799 -0.00048
 C99 C 0.68912 0.01678 -0.06120
 C100 C 0.68912 -0.01772 -0.06112
 C101 C 0.68921 -0.03563 -0.03104
 C102 C 0.69022 -0.07070 -0.03063
 C103 C 0.69056 -0.08765 -0.00028
 C104 C 0.69021 -0.07059 0.02998
 H105 H 0.68901 0.02964 0.08384
 H106 H 0.68911 -0.02994 0.08405
 H107 H 0.68924 0.02928 -0.08507
 H108 H 0.68925 -0.03028 -0.08492
 H109 H 0.69173 0.11377 -0.00056
 H110 H 0.69190 -0.11457 -0.00021
 C111 C 0.18816 0.57030 0.47022
 C112 C 0.18857 0.58726 0.50051
 C113 C 0.18824 0.57020 0.53078
 C114 C 0.18717 0.53519 0.53106
 C115 C 0.18670 0.51767 0.50044
 C116 C 0.18713 0.53529 0.46986
 C117 C 0.18703 0.51743 0.43981
 C118 C 0.18702 0.48291 0.43977
 C119 C 0.18708 0.46496 0.46978
 C120 C 0.18665 0.48248 0.50040
 C121 C 0.18707 0.51723 0.56107
 C122 C 0.18701 0.48271 0.56104
 C123 C 0.18705 0.46486 0.53098
 C124 C 0.18801 0.42984 0.53062
 C125 C 0.18837 0.41288 0.50033
 C126 C 0.18807 0.42994 0.47006
 H127 H 0.18717 0.53004 0.41601
 H128 H 0.18714 0.47038 0.41595
 H129 H 0.18723 0.52976 0.58490
 H130 H 0.18712 0.47010 0.58483
 H131 H 0.18999 0.61413 0.50053
 H132 H 0.18973 0.38600 0.50030
 C133 C 0.31094 0.92967 0.02930
 C134 C 0.31049 0.91269 -0.00097
 C135 C 0.31073 0.92973 -0.03128
 C136 C 0.31177 0.96481 -0.03157
 C137 C 0.31230 0.98232 -0.00093
 C138 C 0.31196 0.96467 0.02965
 C139 C 0.31214 0.98249 0.05972
 C140 C 0.31214 1.01700 0.05980
 C141 C 0.31198 1.03499 0.02982
 C142 C 0.31232 1.01753 -0.00084
 C143 C 0.31180 0.98285 -0.06156
 C144 C 0.31183 1.01736 -0.06147
 C145 C 0.31182 1.03523 -0.03139
 C146 C 0.31082 1.07031 -0.03093
 C147 C 0.31057 1.08716 -0.00055
 C148 C 0.31098 1.07001 0.02965
 H149 H 0.31208 0.96986 0.08350
 H150 H 0.31209 1.02948 0.08365
 H151 H 0.31162 0.97039 -0.08542
 H152 H 0.31166 1.02997 -0.08527
 H153 H 0.30910 0.88580 -0.00087
 H154 H 0.30920 1.11406 -0.00032
 C155 C 0.81108 0.42988 0.53043
 C156 C 0.81081 0.41283 0.50018
 C157 C 0.81115 0.42981 0.46987
 C158 C 0.81205 0.46482 0.46948
 C159 C 0.81242 0.48243 0.50004
 C160 C 0.81201 0.46490 0.53068
 C161 C 0.81204 0.48284 0.56067
 C162 C 0.81199 0.51736 0.56060
 C163 C 0.81189 0.53523 0.53053
 C164 C 0.81235 0.51762 0.49997
 C165 C 0.81209 0.48269 0.43941
 C166 C 0.81199 0.51721 0.43934
 C167 C 0.81188 0.53515 0.46933
 C168 C 0.81079 0.57017 0.46958
 C169 C 0.81044 0.58721 0.49983
 C170 C 0.81084 0.57024 0.53014
 H171 H 0.81193 0.47030 0.58451
 H172 H 0.81184 0.52996 0.58439
 H173 H 0.81200 0.47009 0.41562
 H174 H 0.81183 0.52975 0.41550
 H175 H 0.80949 0.38596 0.50023
 H176 H 0.80902 0.61409 0.49978
 O177 O 0.23693 0.28243 0.20981
 O178 O 0.29883 0.25338 0.27059
 O179 O 0.28253 0.23698 0.20983
 O180 O 0.25322 0.29884 0.27056
 O181 O 0.21711 0.26260 0.29028
 O182 O 0.24641 0.20075 0.22955
 O183 O 0.26272 0.21715 0.29030
 O184 O 0.20081 0.24620 0.22953
 Cu185 Cu 0.27152 0.27156 0.23821
 Cu186 Cu 0.22812 0.22802 0.26191
 C187 C 0.20853 0.26899 0.20920
 C188 C 0.29111 0.23059 0.29092
 C189 C 0.26918 0.20853 0.20922
 C190 C 0.23044 0.29105 0.29088
 O191 O 0.75365 0.79976 0.22883
 O192 O 0.78243 0.73782 0.28978
 O193 O 0.79901 0.75406 0.22905
 O194 O 0.73710 0.78355 0.28963
 O195 O 0.70083 0.74749 0.26997
 O196 O 0.76274 0.71800 0.20937
 O197 O 0.74616 0.70176 0.27010
 O198 O 0.71738 0.76370 0.20917
 Cu199 Cu 0.77169 0.77244 0.26131
 Cu200 Cu 0.72811 0.72911 0.23767
 C201 C 0.73090 0.79207 0.20848
 C202 C 0.76894 0.70944 0.29043
 C203 C 0.79122 0.73127 0.20878
 C204 C 0.70863 0.77026 0.29026
 O205 O 0.74719 0.29899 0.27013
 O206 O 0.71799 0.23719 0.20945
 O207 O 0.70166 0.25361 0.27021
 O208 O 0.76351 0.28258 0.20933
 O209 O 0.79970 0.24629 0.22898
 O210 O 0.73785 0.21733 0.28987
 O211 O 0.75419 0.20091 0.22911
 O212 O 0.78338 0.26271 0.28978
 Cu213 Cu 0.72894 0.27176 0.23780
 Cu214 Cu 0.77243 0.22816 0.26142
 C215 C 0.76997 0.29116 0.29042
 C216 C 0.73139 0.20873 0.20882
 C217 C 0.70942 0.23080 0.29052
 C218 C 0.79193 0.26909 0.20865
 O219 O 0.28227 0.76249 0.20944
 O220 O 0.25289 0.70088 0.27034
 O221 O 0.23671 0.71714 0.20947
 O222 O 0.29845 0.74624 0.27028
 O223 O 0.26224 0.78260 0.28976
 O224 O 0.20050 0.75350 0.22894
 O225 O 0.21668 0.73725 0.28982
 O226 O 0.24605 0.79885 0.22892
 Cu227 Cu 0.27123 0.72801 0.23792
 Cu228 Cu 0.22771 0.77171 0.26132
 C229 C 0.26890 0.79096 0.20869
 C230 C 0.23006 0.70878 0.29058
 C231 C 0.20830 0.73064 0.20872
 C232 C 0.29066 0.76912 0.29049
 O233 O 0.78318 0.26241 0.71038
 O234 O 0.75428 0.20031 0.77104
 O235 O 0.73787 0.21682 0.71032
 O236 O 0.79957 0.24592 0.77114
 O237 O 0.76321 0.28199 0.79088
 O238 O 0.70151 0.25289 0.73006
 O239 O 0.71792 0.23638 0.79079
 O240 O 0.74682 0.29848 0.73012
 Cu241 Cu 0.77239 0.22773 0.73873
 Cu242 Cu 0.72870 0.27108 0.76246
 C243 C 0.76965 0.29081 0.70979
 C244 C 0.73144 0.20797 0.79137
 C245 C 0.70938 0.23017 0.70971
 C246 C 0.79169 0.26864 0.79150
 O247 O 0.29862 0.74703 0.72985
 O248 O 0.23711 0.71774 0.79089
 O249 O 0.25332 0.70141 0.73006
 O250 O 0.28237 0.76339 0.79065
 O251 O 0.24593 0.79948 0.77109
 O252 O 0.21688 0.73750 0.71050
 O253 O 0.20067 0.75384 0.77133
 O254 O 0.26218 0.78312 0.71029
 Cu255 Cu 0.27153 0.72875 0.76233
 Cu256 Cu 0.22774 0.77212 0.73883
 C257 C 0.29068 0.76980 0.70956
 C258 C 0.20862 0.73107 0.79163
 C259 C 0.23042 0.70911 0.70984
 C260 C 0.26884 0.79179 0.79130
 O261 O 0.25258 0.29867 0.73022
 O262 O 0.28198 0.23685 0.79095
 O263 O 0.29837 0.25340 0.73023
 O264 O 0.23618 0.28212 0.79095
 O265 O 0.20025 0.24577 0.77119
 O266 O 0.26244 0.21705 0.71047
 O267 O 0.24605 0.20051 0.77119
 O268 O 0.21665 0.26233 0.71046
 Cu269 Cu 0.27090 0.27142 0.76258
 Cu270 Cu 0.22772 0.22775 0.73883
 C271 C 0.22988 0.29082 0.70987
 C272 C 0.26875 0.20835 0.79154
 C273 C 0.29079 0.23060 0.70989
 C274 C 0.20783 0.26857 0.79153
 O275 O 0.73713 0.78340 0.70998
 O276 O 0.79923 0.75416 0.77048
 O277 O 0.78265 0.73785 0.70980
 O278 O 0.75368 0.79967 0.77072
 O279 O 0.71757 0.76347 0.79052
 O280 O 0.74654 0.70166 0.72961
 O281 O 0.76312 0.71796 0.79029
 O282 O 0.70102 0.74721 0.72978
 Cu283 Cu 0.77181 0.77243 0.73825
 Cu284 Cu 0.72842 0.72893 0.76204
 C285 C 0.70871 0.77001 0.70944
 C286 C 0.79156 0.73134 0.79080
 C287 C 0.76927 0.70943 0.70922
 C288 C 0.73098 0.79188 0.79113
 C289 C 0.30811 0.08924 0.05986
 C290 C 0.30467 0.10598 0.08448
 C291 C 0.29947 0.12633 0.11258
 C292 C 0.29403 0.14431 0.13590
 C293 C 0.28652 0.16605 0.16238
 C294 C 0.27914 0.18516 0.18422
 C295 C 0.80795 0.58965 0.56023
 C296 C 0.80452 0.60651 0.58475
 C297 C 0.79935 0.62698 0.61275
 C298 C 0.79395 0.64505 0.63601
 C299 C 0.78649 0.66688 0.66242
 C300 C 0.77915 0.68604 0.68423
 C301 C 0.69294 0.91117 0.05858
 C302 C 0.69628 0.89447 0.08326
 C303 C 0.70134 0.87417 0.11144
 C304 C 0.70663 0.85623 0.13485
 C305 C 0.71395 0.83453 0.16144
 C306 C 0.72116 0.81544 0.18338
 C307 C 0.19088 0.41043 0.56073
 C308 C 0.19431 0.39358 0.58528
 C309 C 0.19951 0.37315 0.61333
 C310 C 0.20494 0.35511 0.63662
 C311 C 0.21247 0.33333 0.66307
 C312 C 0.21988 0.31420 0.68489
 C313 C 0.91093 0.30714 0.05876
 C314 C 0.89423 0.30382 0.08344
 C315 C 0.87395 0.29877 0.11163
 C316 C 0.85602 0.29347 0.13504
 C317 C 0.83434 0.28613 0.16162
 C318 C 0.81527 0.27888 0.18355
 C319 C 0.40996 0.80887 0.56022
 C320 C 0.39313 0.80542 0.58477
 C321 C 0.37273 0.80020 0.61283
 C322 C 0.35473 0.79475 0.63614
 C323 C 0.33301 0.78720 0.66263
 C324 C 0.31395 0.77979 0.68450
 C325 C 0.08943 0.69206 0.05907
 C326 C 0.10611 0.69546 0.08373
 C327 C 0.12637 0.70061 0.11188
 C328 C 0.14428 0.70600 0.13525
 C329 C 0.16595 0.71344 0.16178
 C330 C 0.18500 0.72076 0.18367
 C331 C 0.58994 0.19171 0.56055
 C332 C 0.60677 0.19507 0.58509
 C333 C 0.62718 0.20018 0.61312
 C334 C 0.64520 0.20553 0.63642
 C335 C 0.66695 0.21296 0.66287
 C336 C 0.68605 0.22027 0.68471
 C337 C 0.69296 0.08817 0.94050
 C338 C 0.69637 0.10496 0.91590
 C339 C 0.70152 0.12538 0.88783
 C340 C 0.70689 0.14345 0.86455
 C341 C 0.71432 0.16530 0.83812
 C342 C 0.72161 0.18450 0.81632
 C343 C 0.19106 0.58968 0.44009
 C344 C 0.19450 0.60649 0.41552
 C345 C 0.19970 0.62684 0.38742
 C346 C 0.20514 0.64479 0.36407
 C347 C 0.21266 0.66647 0.33754
 C348 C 0.22007 0.68551 0.31564
 C349 C 0.30784 0.91147 0.94019
 C350 C 0.30435 0.89469 0.91561
 C351 C 0.29910 0.87429 0.88758
 C352 C 0.29364 0.85624 0.86434
 C353 C 0.28612 0.83441 0.83796
 C354 C 0.27875 0.81523 0.81621
 C355 C 0.80835 0.41042 0.43976
 C356 C 0.80500 0.39361 0.41520
 C357 C 0.79991 0.37325 0.38712
 C358 C 0.79458 0.35528 0.36379
 C359 C 0.78717 0.33357 0.33729
 C360 C 0.77986 0.31449 0.31543
 C361 C 0.08792 0.30694 0.94067
 C362 C 0.10473 0.30352 0.91608
 C363 C 0.12516 0.29836 0.88801
 C364 C 0.14324 0.29300 0.86473
 C365 C 0.16511 0.28560 0.83830
 C366 C 0.18433 0.27834 0.81649
 C367 C 0.58922 0.80918 0.43958
 C368 C 0.60604 0.80576 0.41500
 C369 C 0.62642 0.80058 0.38692
 C370 C 0.64441 0.79516 0.36359
 C371 C 0.66615 0.78765 0.33709
 C372 C 0.68525 0.78025 0.31524
 C373 C 0.91165 0.69200 0.93939
 C374 C 0.89481 0.69552 0.91486
 C375 C 0.87433 0.70082 0.88689
 C376 C 0.85621 0.70633 0.86369
 C377 C 0.83430 0.71392 0.83737
 C378 C 0.81506 0.72135 0.81566
 C379 C 0.41071 0.19198 0.44008
 C380 C 0.39387 0.19540 0.41553
 C381 C 0.37345 0.20055 0.38749
 C382 C 0.35543 0.20594 0.36420
 C383 C 0.33364 0.21338 0.33774
 C384 C 0.31451 0.22071 0.31591
 C385 C 0.69293 0.91095 0.94086
 C386 C 0.69625 0.89419 0.91625
 C387 C 0.70129 0.87388 0.88810
 C388 C 0.70658 0.85595 0.86471
 C389 C 0.71393 0.83427 0.83814
 C390 C 0.72118 0.81521 0.81622
 C391 C 0.19106 0.41062 0.43992
 C392 C 0.19459 0.39381 0.41536
 C393 C 0.19990 0.37340 0.38733
 C394 C 0.20542 0.35537 0.36407
 C395 C 0.21301 0.33358 0.33765
 C396 C 0.22044 0.31444 0.31585
 C397 C 0.30797 0.08873 0.94061
 C398 C 0.30450 0.10558 0.91606
 C399 C 0.29926 0.12601 0.88803
 C400 C 0.29379 0.14405 0.86475
 C401 C 0.28622 0.16584 0.83831
 C402 C 0.27878 0.18497 0.81650
 C403 C 0.80781 0.58951 0.43943
 C404 C 0.80430 0.60636 0.41488
 C405 C 0.79905 0.62683 0.38687
 C406 C 0.79360 0.64493 0.36362
 C407 C 0.78611 0.66680 0.33722
 C408 C 0.77879 0.68599 0.31542
 C409 C 0.08976 0.69212 0.94136
 C410 C 0.10652 0.69556 0.91674
 C411 C 0.12682 0.70075 0.88861
 C412 C 0.14474 0.70619 0.86523
 C413 C 0.16637 0.71371 0.83866
 C414 C 0.18538 0.72111 0.81674
 C415 C 0.58980 0.19195 0.43973
 C416 C 0.60662 0.19543 0.41516
 C417 C 0.62704 0.20066 0.38711
 C418 C 0.64508 0.20610 0.36382
 C419 C 0.66688 0.21358 0.33737
 C420 C 0.68603 0.22092 0.31554
 C421 C 0.91071 0.30699 0.94104
 C422 C 0.89395 0.30364 0.91644
 C423 C 0.87364 0.29854 0.88833
 C424 C 0.85571 0.29320 0.86497
 C425 C 0.83404 0.28580 0.83843
 C426 C 0.81499 0.27850 0.81654
 C427 C 0.41014 0.80861 0.43941
 C428 C 0.39334 0.80503 0.41487
 C429 C 0.37294 0.79968 0.38687
 C430 C 0.35491 0.79413 0.36362
 C431 C 0.33314 0.78652 0.33723
 C432 C 0.31402 0.77909 0.31545
 C433 C 0.30807 0.91028 0.05942
 C434 C 0.30463 0.89346 0.08398
 C435 C 0.29941 0.87306 0.11204
 C436 C 0.29394 0.85506 0.13535
 C437 C 0.28637 0.83334 0.16182
 C438 C 0.27893 0.81426 0.18367
 C439 C 0.80817 0.41054 0.56060
 C440 C 0.80473 0.39373 0.58518
 C441 C 0.79956 0.37331 0.61324
 C442 C 0.79418 0.35526 0.63654
 C443 C 0.78676 0.33345 0.66300
 C444 C 0.77947 0.31427 0.68482
 C445 C 0.69281 0.08924 0.05974
 C446 C 0.69618 0.10606 0.08428
 C447 C 0.70130 0.12647 0.11232
 C448 C 0.70667 0.14449 0.13561
 C449 C 0.71412 0.16625 0.16205
 C450 C 0.72146 0.18537 0.18386
 C451 C 0.19125 0.58951 0.56092
 C452 C 0.19479 0.60631 0.58547
 C453 C 0.20009 0.62671 0.61348
 C454 C 0.20558 0.64474 0.63674
 C455 C 0.21313 0.66653 0.66314
 C456 C 0.22051 0.68568 0.68491
 C457 C 0.91131 0.69183 0.06016
 C458 C 0.89439 0.69530 0.08466
 C459 C 0.87387 0.70057 0.11262
 C460 C 0.85574 0.70608 0.13582
 C461 C 0.83386 0.71370 0.16216
 C462 C 0.81466 0.72118 0.18389
 C463 C 0.41084 0.19206 0.56090
 C464 C 0.39399 0.19552 0.58545
 C465 C 0.37352 0.20071 0.61348
 C466 C 0.35542 0.20611 0.63674
 C467 C 0.33353 0.21354 0.66315
 C468 C 0.31430 0.22081 0.68494
 C469 C 0.08900 0.30725 0.05992
 C470 C 0.10582 0.30392 0.08448
 C471 C 0.12622 0.29886 0.11255
 C472 C 0.14424 0.29353 0.13586
 C473 C 0.16601 0.28614 0.16234
 C474 C 0.18514 0.27885 0.18419
 C475 C 0.58904 0.80906 0.56041
 C476 C 0.60584 0.80557 0.58497
 C477 C 0.62625 0.80032 0.61302
 C478 C 0.64428 0.79486 0.63630
 C479 C 0.66609 0.78733 0.66272
 C480 C 0.68526 0.77995 0.68451
   
