data_POSCAR
  _audit_creation_date              2014-09-24
  _audit_creation_method            'ToBaCCo'
  _symmetry_space_group_name_H-M    'P1'
  _symmetry_Int_Tables_number       1
  _symmetry_cell_setting            triclinic
  loop_
  _symmetry_equiv_pos_as_xyz
 x,y,z
_cell_length_a 53.7756
_cell_length_b 53.7362
_cell_length_c 18.7881
_cell_angle_alpha 89.954900
_cell_angle_beta 90.019700
_cell_angle_gamma 119.930800
loop_
  _atom_site_label
  _atom_site_type_symbol
  _atom_site_fract_x
  _atom_site_fract_y
  _atom_site_fract_z
O1 O 0.21204 0.47236 0.43297
 O2 O 0.26112 0.47237 0.56931
 O3 O 0.21235 0.47194 0.57067
 O4 O 0.26052 0.47238 0.43161
 O5 O 0.28417 0.51982 0.43156
 O6 O 0.23573 0.51938 0.57138
 O7 O 0.28443 0.51978 0.57068
 O8 O 0.23562 0.51980 0.43236
 Cu9 Cu 0.23417 0.46752 0.50113
 Cu10 Cu 0.26237 0.52448 0.50154
 C11 C 0.21535 0.49601 0.40966
 C12 C 0.28123 0.49603 0.59306
 C13 C 0.21563 0.49551 0.59428
 C14 C 0.28063 0.49608 0.40821
 O15 O 0.52772 -0.26140 0.43073
 O16 O 0.52772 -0.21266 0.56793
 O17 O 0.52761 -0.26131 0.56843
 O18 O 0.52785 -0.21283 0.43032
 O19 O 0.48044 -0.23634 0.42951
 O20 O 0.48023 -0.28483 0.56898
 O21 O 0.48031 -0.23622 0.56835
 O22 O 0.48033 -0.28490 0.42979
 Cu23 Cu 0.53246 -0.23471 0.49943
 Cu24 Cu 0.47555 -0.26298 0.49917
 C25 C 0.50407 -0.28154 0.40701
 C26 C 0.50409 -0.21596 0.59112
 C27 C 0.50395 -0.28146 0.59199
 C28 C 0.50426 -0.21617 0.40671
 O29 O 1.21230 0.73982 0.56641
 O30 O 1.26137 0.78871 0.42995
 O31 O 1.21280 0.74024 0.42870
 O32 O 1.26083 0.78822 0.56750
 O33 O 1.28457 0.76449 0.56817
 O34 O 1.23626 0.71622 0.42845
 O35 O 1.28482 0.76471 0.42907
 O36 O 1.23597 0.71602 0.56749
 Cu37 Cu 1.23446 0.76662 0.49808
 Cu38 Cu 1.26279 0.73796 0.49831
 C39 C 1.21565 0.71953 0.58996
 C40 C 1.28159 0.78523 0.40651
 C41 C 1.21614 0.71994 0.40536
 C42 C 1.28099 0.78472 0.59111
 O43 O 0.78647 0.52489 0.43364
 O44 O 0.73707 0.52485 0.56874
 O45 O 0.78573 0.52502 0.57080
 O46 O 0.73800 0.52505 0.43147
 O47 O 0.71416 0.47760 0.43113
 O48 O 0.76227 0.47757 0.57124
 O49 O 0.71360 0.47744 0.57003
 O50 O 0.76272 0.47744 0.43260
 Cu51 Cu 0.76417 0.52969 0.50118
 Cu52 Cu 0.73578 0.47271 0.50125
 C53 C 0.78323 0.50124 0.41062
 C54 C 0.71676 0.50121 0.59204
 C55 C 0.78245 0.50138 0.59405
 C56 C 0.71777 0.50143 0.40815
 O57 O 0.47537 0.26188 0.43355
 O58 O 0.47555 0.21276 0.56944
 O59 O 0.47531 0.26131 0.57077
 O60 O 0.47544 0.21335 0.43227
 O61 O 0.52286 0.23694 0.43188
 O62 O 0.52272 0.28525 0.57121
 O63 O 0.52294 0.23669 0.57074
 O64 O 0.52278 0.28557 0.43252
 Cu65 Cu 0.47069 0.23495 0.50157
 Cu66 Cu 0.52762 0.26351 0.50161
 C67 C 0.49898 0.28222 0.41033
 C68 C 0.49919 0.21607 0.59277
 C69 C 0.49890 0.28167 0.59386
 C70 C 0.49908 0.21671 0.40907
 O71 O 0.78742 0.26276 0.56961
 O72 O 0.73810 0.21347 0.43416
 O73 O 0.78672 0.26199 0.43224
 O74 O 0.73890 0.21412 0.57144
 O75 O 0.71498 0.23767 0.57184
 O76 O 0.76315 0.28589 0.43186
 O77 O 0.71445 0.23728 0.43308
 O78 O 0.76353 0.28631 0.57085
 Cu79 Cu 0.76515 0.23572 0.50186
 Cu80 Cu 0.73665 0.26421 0.50189
 C81 C 0.78410 0.28310 0.59295
 C82 C 0.71772 0.21675 0.41107
 C83 C 0.78335 0.28228 0.40894
 C84 C 0.71859 0.21744 0.59468
 O85 O 0.96027 0.43691 0.12979
 O86 O 0.92844 0.44379 0.06297
 C87 C 0.93447 0.43068 0.11214
 O88 O 1.04054 0.56599 0.12288
 O89 O 1.07228 0.55776 0.05970
 C90 C 1.06634 0.57210 0.10547
 O91 O 0.96049 0.52352 0.13104
 O92 O 0.92854 0.48526 0.06335
 C93 C 0.93464 0.50414 0.11322
 O94 O 1.04059 0.47523 0.12381
 O95 O 1.07237 0.51512 0.06043
 C96 C 1.06641 0.49491 0.10650
 Zr97 Zr 1.00036 0.46911 0.08980
 O98 O 1.00364 0.47100 0.20231
 O99 O 0.99722 0.42822 0.08968
 Zr100 Zr 1.00035 0.53211 0.08819
 O101 O 1.00325 0.53582 0.20025
 O102 O 0.99680 0.56960 0.08154
 O103 O 0.97481 0.48786 0.10328
 O104 O 1.02520 0.51304 0.10230
 O105 O 1.04035 0.47440 -0.12276
 O106 O 1.07215 0.51446 -0.06015
 C107 C 1.06616 0.49406 -0.10552
 O108 O 0.96023 0.52355 -0.13101
 O109 O 0.92843 0.48513 -0.06343
 C110 C 0.93443 0.50412 -0.11294
 O111 O 1.04051 0.56571 -0.12462
 O112 O 1.07234 0.55756 -0.06146
 C113 C 1.06635 0.57183 -0.10744
 O114 O 0.96022 0.43664 -0.12966
 O115 O 0.92843 0.44369 -0.06330
 C116 C 0.93441 0.43048 -0.11224
 Zr117 Zr 1.00025 0.46870 -0.08914
 O118 O 1.00338 0.46975 -0.20149
 O119 O 0.99695 0.42777 -0.08674
 Zr120 Zr 1.00030 0.53163 -0.09047
 O121 O 1.00344 0.53313 -0.20287
 O122 O 0.99710 0.56933 -0.08989
 Zr123 Zr 0.95723 0.47886 -0.00022
 Zr124 Zr 1.04323 0.52179 -0.00046
 O125 O 1.02517 0.51254 -0.10313
 O126 O 0.97467 0.48736 -0.10391
 O127 O 1.02608 0.47691 0.00034
 O128 O 0.97508 0.52374 -0.00107
 O129 O 0.97516 0.45186 0.00041
 O130 O 1.02615 0.54961 -0.00125
 H131 H 1.03796 0.51951 0.14448
 H132 H 0.96195 0.53169 -0.00101
 H133 H 1.03797 0.51880 -0.14522
 H134 H 0.96218 0.43077 0.00052
 H135 H 1.01479 0.58507 0.06059
 H136 H 1.01339 0.58401 -0.06184
 H137 H 0.98754 0.51489 -0.22145
 H138 H 0.98792 0.47277 -0.22041
 H139 H 1.01339 0.42946 -0.05913
 H140 H 1.01367 0.42989 0.06219
 H141 H 0.98638 0.47077 0.22144
 H142 H 0.99300 0.51608 0.21954
 O143 O 0.47673 0.43749 -0.13159
 O144 O 0.51494 0.44376 -0.06362
 C145 C 0.49607 0.43096 -0.11337
 O146 O 0.52485 0.56590 -0.12459
 O147 O 0.48494 0.55779 -0.06146
 C148 C 0.50516 0.57205 -0.10731
 O149 O 0.56318 0.52384 -0.13065
 O150 O 0.55627 0.48506 -0.06405
 C151 C 0.56939 0.50419 -0.11316
 O152 O 0.43413 0.47505 -0.12410
 O153 O 0.44226 0.51503 -0.06095
 C154 C 0.42798 0.49477 -0.10678
 Zr155 Zr 0.46802 0.46878 -0.08908
 O156 O 0.46359 0.46569 -0.20102
 O157 O 0.42960 0.42918 -0.07648
 Zr158 Zr 0.53096 0.53173 -0.09059
 O159 O 0.52940 0.53302 -0.20308
 O160 O 0.57179 0.56942 -0.09016
 O161 O 0.51222 0.48746 -0.10412
 O162 O 0.48704 0.51269 -0.10339
 O163 O 0.43423 0.47513 0.12292
 O164 O 0.44256 0.51529 0.06028
 C165 C 0.42818 0.49494 0.10584
 O166 O 0.56330 0.52400 0.12892
 O167 O 0.55647 0.48528 0.06226
 C168 C 0.56958 0.50443 0.11126
 O169 O 0.52523 0.56623 0.12223
 O170 O 0.48522 0.55803 0.05937
 C171 C 0.50550 0.57234 0.10507
 O172 O 0.47652 0.43717 0.13018
 O173 O 0.51508 0.44384 0.06314
 C174 C 0.49606 0.43085 0.11257
 Zr175 Zr 0.46845 0.46916 0.08922
 O176 O 0.46672 0.47059 0.20161
 O177 O 0.43059 0.42846 0.08764
 Zr178 Zr 0.53127 0.53203 0.08832
 O179 O 0.53031 0.53419 0.20069
 O180 O 0.57211 0.56970 0.08571
 Zr181 Zr 0.52127 0.47887 -0.00057
 Zr182 Zr 0.47828 0.52200 -0.00077
 O183 O 0.48743 0.51309 0.10202
 O184 O 0.51269 0.48779 0.10299
 O185 O 0.45056 0.47719 0.00001
 O186 O 0.54819 0.52375 -0.00116
 O187 O 0.47646 0.45181 0.00001
 O188 O 0.52311 0.54969 -0.00127
 H189 H 0.48060 0.51906 -0.14554
 H190 H 0.56927 0.53186 -0.00126
 H191 H 0.48108 0.51955 0.14411
 H192 H 0.46853 0.43075 0.00004
 H193 H 0.57012 0.58425 -0.06286
 H194 H 0.57018 0.58445 0.05867
 H195 H 0.52720 0.51567 0.21961
 H196 H 0.48511 0.47331 0.22028
 H197 H 0.41677 0.42991 0.05555
 H198 H 0.42287 0.42188 -0.12520
 H199 H 0.48028 0.48297 -0.22086
 H200 H 0.52806 0.51514 -0.22147
 O201 O 0.47666 0.03950 0.13071
 O202 O 0.51520 0.07135 0.06369
 C203 C 0.49617 0.06532 0.11300
 O204 O 0.52540 -0.04094 0.12294
 O205 O 0.48548 -0.07262 0.05996
 C206 C 0.50580 -0.06673 0.10545
 O207 O 0.56303 0.03925 0.13117
 O208 O 0.55649 0.07124 0.06396
 C209 C 0.56936 0.06513 0.11361
 O210 O 0.43459 -0.04077 0.12446
 O211 O 0.44283 -0.07253 0.06136
 C212 C 0.42854 -0.06659 0.10728
 Zr213 Zr 0.46876 -0.00060 0.09061
 O214 O 0.46765 -0.00399 0.20303
 O215 O 0.43109 0.00264 0.09124
 Zr216 Zr 0.53166 -0.00066 0.08864
 O217 O 0.53222 -0.00371 0.20079
 O218 O 0.57262 0.00279 0.08201
 O219 O 0.51299 0.02492 0.10388
 O220 O 0.48784 -0.02549 0.10287
 O221 O 0.43422 -0.04070 -0.12267
 O222 O 0.44241 -0.07255 -0.05977
 C223 C 0.42806 -0.06655 -0.10535
 O224 O 0.56323 0.03965 -0.12988
 O225 O 0.55645 0.07143 -0.06267
 C226 C 0.56950 0.06546 -0.11198
 O227 O 0.52502 -0.04067 -0.12445
 O228 O 0.48505 -0.07253 -0.06146
 C229 C 0.50528 -0.06652 -0.10744
 O230 O 0.47659 0.03952 -0.13022
 O231 O 0.51509 0.07136 -0.06306
 C232 C 0.49611 0.06535 -0.11258
 Zr233 Zr 0.46813 -0.00047 -0.08807
 O234 O 0.46456 -0.00332 -0.20021
 O235 O 0.43063 0.00300 -0.08133
 Zr236 Zr 0.53105 -0.00050 -0.09009
 O237 O 0.52896 -0.00364 -0.20256
 O238 O 0.57187 0.00257 -0.09062
 Zr239 Zr 0.52143 0.04256 0.00038
 Zr240 Zr 0.47848 -0.04350 0.00006
 O241 O 0.48715 -0.02531 -0.10252
 O242 O 0.51233 0.02508 -0.10325
 O243 O 0.45069 -0.02638 0.00129
 O244 O 0.54842 0.02465 -0.00064
 O245 O 0.47657 0.02472 0.00135
 O246 O 0.52331 -0.02643 -0.00093
 H247 H 0.48157 -0.03831 0.14497
 H248 H 0.56947 0.03775 -0.00057
 H249 H 0.48065 -0.03803 -0.14475
 H250 H 0.46861 0.03784 0.00140
 H251 H 0.57011 -0.01515 0.06066
 H252 H 0.57040 -0.01348 -0.06161
 H253 H 0.52922 0.01366 -0.22159
 H254 H 0.48422 0.00814 -0.21938
 H255 H 0.41522 -0.01495 -0.06002
 H256 H 0.41654 -0.01330 0.06206
 H257 H 0.48464 0.01328 0.22217
 H258 H 0.52440 0.00809 0.22004
 C259 C 1.15544 0.49493 0.26591
 N260 N 1.15119 0.47036 0.29731
 N261 N 1.17060 0.47069 0.34188
 C262 C 1.19493 0.49565 0.35717
 N263 N 1.19932 0.52024 0.32546
 N264 N 1.17995 0.51988 0.28045
 C265 C 1.13300 0.49457 0.22052
 N266 N 1.13799 0.51796 0.18174
 N267 N 1.11699 0.51788 0.14372
 C268 C 1.09023 0.49449 0.14364
 N269 N 1.08533 0.47110 0.18213
 N270 N 1.10635 0.47108 0.21957
 C271 C 0.50503 0.66108 0.26439
 N272 N 0.52985 0.68261 0.29161
 N273 N 0.52951 0.70157 0.33662
 C274 C 0.50432 0.69957 0.35674
 N275 N 0.47947 0.67815 0.32900
 N276 N 0.47983 0.65930 0.28350
 C277 C 0.50547 0.63910 0.21886
 N278 N 0.48159 0.61971 0.18334
 N279 N 0.48179 0.59886 0.14530
 C280 C 0.50577 0.59652 0.14203
 N281 N 0.52963 0.61596 0.17738
 N282 N 0.52952 0.63694 0.21477
 C283 C 0.33954 -0.15589 0.26571
 N284 N 0.31799 -0.15259 0.29292
 N285 N 0.29886 -0.17205 0.33732
 C286 C 0.30070 -0.19542 0.35684
 N287 N 0.32216 -0.19883 0.32918
 N288 N 0.34118 -0.17946 0.28425
 C289 C 0.36163 -0.13339 0.22059
 N290 N 0.38089 -0.13797 0.18458
 N291 N 0.40180 -0.11692 0.14678
 C292 C 0.40434 -0.09048 0.14420
 N293 N 0.38501 -0.08599 0.17995
 N294 N 0.36396 -0.10708 0.21713
 C295 C 0.84483 0.50253 0.27272
 N296 N 0.84895 0.52694 0.30467
 N297 N 0.82897 0.52655 0.34720
 C298 C 0.80418 0.50168 0.35984
 N299 N 0.79995 0.47723 0.32769
 N300 N 0.81989 0.47767 0.28463
 C301 C 0.86771 0.50301 0.22900
 N302 N 0.86272 0.48032 0.18736
 N303 N 0.88392 0.48075 0.14954
 C304 C 0.91089 0.50376 0.15261
 N305 N 0.91581 0.52639 0.19425
 N306 N 0.89460 0.52607 0.23149
 C307 C 0.49756 0.34228 0.27127
 N308 N 0.47314 0.32190 0.30288
 N309 N 0.47358 0.30239 0.34574
 C310 C 0.49850 0.30262 0.35905
 N311 N 0.52296 0.32292 0.32720
 N312 N 0.52248 0.34234 0.28383
 C313 C 0.49705 0.36467 0.22744
 N314 N 0.51987 0.38259 0.18647
 N315 N 0.51948 0.40345 0.14884
 C316 C 0.49636 0.40730 0.15146
 N317 N 0.47360 0.38937 0.19239
 N318 N 0.47389 0.36839 0.22942
 C319 C 0.65747 0.15510 0.27302
 N320 N 0.67781 0.15101 0.30488
 N321 N 0.69736 0.17100 0.34742
 C322 C 0.69723 0.19579 0.36017
 N323 N 0.67697 0.20000 0.32807
 N324 N 0.65751 0.18006 0.28500
 C325 C 0.63509 0.13218 0.22934
 N326 N 0.61732 0.13713 0.18777
 N327 N 0.59658 0.11590 0.15001
 C328 C 0.59270 0.08892 0.15304
 N329 N 0.61046 0.08403 0.19464
 N330 N 0.63132 0.10527 0.23182
 C331 C 0.49804 0.15569 -0.27100
 N332 N 0.47330 0.15265 -0.29824
 N333 N 0.47370 0.17263 -0.34094
 C334 C 0.49888 0.19632 -0.35868
 N335 N 0.52365 0.19949 -0.33095
 N336 N 0.52322 0.17959 -0.28765
 C337 C 0.49748 0.13270 -0.22744
 N338 N 0.52079 0.13710 -0.18929
 N339 N 0.52029 0.11578 -0.15173
 C340 C 0.49656 0.08923 -0.15167
 N341 N 0.47332 0.08487 -0.18992
 N342 N 0.47372 0.10623 -0.22681
 C343 C 0.65781 0.50241 -0.27120
 N344 N 0.65639 0.47718 -0.28832
 N345 N 0.67576 0.47674 -0.33183
 C346 C 0.69738 0.50154 -0.35935
 N347 N 0.69900 0.52677 -0.34118
 N348 N 0.67952 0.52718 -0.29824
 C349 C 0.63548 0.50299 -0.22743
 N350 N 0.63287 0.52684 -0.22630
 N351 N 0.61192 0.52721 -0.18945
 C352 C 0.59293 0.50384 -0.15177
 N353 N 0.59567 0.48003 -0.15225
 N354 N 0.61648 0.47956 -0.18976
 C355 C 0.84417 0.34195 -0.26996
 N356 N 0.82038 0.34340 -0.28709
 N357 N 0.80060 0.32407 -0.33068
 C358 C 0.80378 0.30244 -0.35829
 N359 N 0.82735 0.30077 -0.34004
 N360 N 0.84721 0.32022 -0.29703
 C361 C 0.86709 0.36432 -0.22625
 N362 N 0.89348 0.36684 -0.22496
 N363 N 0.91481 0.38781 -0.18823
 C364 C 0.91050 0.40692 -0.15080
 N365 N 0.88401 0.40427 -0.15142
 N366 N 0.86272 0.38343 -0.18882
 C367 C 0.50520 -0.15573 -0.26626
 N368 N 0.52975 -0.15154 -0.29751
 N369 N 0.52940 -0.17109 -0.34163
 C370 C 0.50446 -0.19548 -0.35660
 N371 N 0.47989 -0.19979 -0.32506
 N372 N 0.48027 -0.18029 -0.28049
 C373 C 0.50553 -0.13320 -0.22132
 N374 N 0.48216 -0.13817 -0.18256
 N375 N 0.48225 -0.11714 -0.14467
 C376 C 0.50564 -0.09036 -0.14469
 N377 N 0.52899 -0.08549 -0.18319
 N378 N 0.52898 -0.10653 -0.22054
 C379 C 0.33895 0.49515 -0.26515
 N380 N 0.34052 0.52033 -0.28373
 N381 N 0.32157 0.52065 -0.32901
 C382 C 0.30027 0.49579 -0.35703
 N383 N 0.29849 0.47061 -0.33748
 N384 N 0.31754 0.47032 -0.29271
 C385 C 0.36103 0.49474 -0.21991
 N386 N 0.36335 0.47076 -0.21636
 N387 N 0.38442 0.47068 -0.17927
 C388 C 0.40379 0.49450 -0.14367
 N389 N 0.40128 0.51842 -0.14638
 N390 N 0.38035 0.51858 -0.18411
 C391 C 1.15552 0.66081 -0.26653
 N392 N 1.18004 0.66033 -0.28077
 N393 N 1.19948 0.67929 -0.32569
 C394 C 1.19516 0.69951 -0.35761
 N395 N 1.17082 0.70019 -0.34266
 N396 N 1.15132 0.68114 -0.29819
 C397 C 1.13302 0.63874 -0.22125
 N398 N 1.10637 0.63559 -0.22050
 N399 N 1.08532 0.61458 -0.18314
 C400 C 1.09017 0.59606 -0.14455
 N401 N 1.11693 0.59941 -0.14446
 N402 N 1.13797 0.62031 -0.18237
 C403 C 0.84387 0.50282 -0.26756
 N404 N 0.84772 0.52731 -0.29854
 N405 N 0.82768 0.52687 -0.34093
 C406 C 0.80312 0.50189 -0.35432
 N407 N 0.79913 0.47737 -0.32300
 N408 N 0.81912 0.47786 -0.28007
 C409 C 0.86693 0.50329 -0.22489
 N410 N 0.86224 0.48038 -0.18448
 N411 N 0.88366 0.48073 -0.14790
 C412 C 0.91055 0.50386 -0.15113
 N413 N 0.91518 0.52670 -0.19157
 N414 N 0.89375 0.52646 -0.22755
 C415 C 0.49739 0.34177 -0.26828
 N416 N 0.47296 0.32127 -0.29948
 N417 N 0.47342 0.30165 -0.34177
 C418 C 0.49835 0.30191 -0.35482
 N419 N 0.52282 0.32231 -0.32328
 N420 N 0.52232 0.34183 -0.28046
 C421 C 0.49691 0.36435 -0.22558
 N422 N 0.51974 0.38238 -0.18487
 N423 N 0.51940 0.40345 -0.14823
 C424 C 0.49636 0.40739 -0.15172
 N425 N 0.47359 0.38935 -0.19241
 N426 N 0.47382 0.36816 -0.22845
 C427 C 0.65867 0.15605 -0.26674
 N428 N 0.67930 0.15217 -0.29751
 N429 N 0.69887 0.17219 -0.33997
 C430 C 0.69844 0.19676 -0.35364
 N431 N 0.67792 0.20079 -0.32248
 N432 N 0.65844 0.18082 -0.27950
 C433 C 0.63611 0.13300 -0.22399
 N434 N 0.61787 0.13770 -0.18376
 N435 N 0.59683 0.11628 -0.14713
 C436 C 0.59313 0.08937 -0.15011
 N437 N 0.61136 0.08473 -0.19034
 N438 N 0.63252 0.10616 -0.22637
 C439 C 1.15557 0.49383 -0.26192
 N440 N 1.15152 0.46933 -0.29322
 N441 N 1.17106 0.46986 -0.33767
 C442 C 1.19527 0.49493 -0.35291
 N443 N 1.19947 0.51944 -0.32115
 N444 N 1.18000 0.51887 -0.27626
 C445 C 1.13302 0.49342 -0.21706
 N446 N 1.13793 0.51681 -0.17847
 N447 N 1.11682 0.51680 -0.14124
 C448 C 1.09002 0.49348 -0.14176
 N449 N 1.08521 0.47007 -0.17992
 N450 N 1.10633 0.47000 -0.21664
 C451 C 0.50485 0.66115 -0.26532
 N452 N 0.52968 0.68269 -0.29250
 N453 N 0.52936 0.70167 -0.33751
 C454 C 0.50417 0.69966 -0.35768
 N455 N 0.47931 0.67823 -0.33000
 N456 N 0.47966 0.65936 -0.28447
 C457 C 0.50529 0.63911 -0.22003
 N458 N 0.48153 0.61992 -0.18374
 N459 N 0.48169 0.59897 -0.14605
 C460 C 0.50550 0.59631 -0.14395
 N461 N 0.52925 0.61556 -0.17998
 N462 N 0.52919 0.63665 -0.21704
 C463 C 0.33925 -0.15566 -0.26415
 N464 N 0.31897 -0.15140 -0.29564
 N465 N 0.30004 -0.17076 -0.34046
 C466 C 0.30080 -0.19503 -0.35591
 N467 N 0.32094 -0.19946 -0.32401
 N468 N 0.33979 -0.18015 -0.27874
 C469 C 0.36121 -0.13322 -0.21878
 N470 N 0.37966 -0.13817 -0.18010
 N471 N 0.40056 -0.11712 -0.14233
 C472 C 0.40387 -0.09035 -0.14237
 N473 N 0.38529 -0.08551 -0.18065
 N474 N 0.36428 -0.10658 -0.21786
 C475 C 0.50566 -0.15624 0.26262
 N476 N 0.53018 -0.15210 0.29389
 N477 N 0.52976 -0.17157 0.33847
 C478 C 0.50475 -0.19582 0.35387
 N479 N 0.48021 -0.20011 0.32219
 N480 N 0.48067 -0.18069 0.27717
 C481 C 0.50610 -0.13369 0.21767
 N482 N 0.48274 -0.13854 0.17909
 N483 N 0.48284 -0.11739 0.14170
 C484 C 0.50622 -0.09062 0.14205
 N485 N 0.52960 -0.08588 0.18026
 N486 N 0.52959 -0.10705 0.21709
 C487 C 0.33893 0.49500 0.26317
 N488 N 0.33962 0.52003 0.27857
 N489 N 0.32074 0.52043 0.32388
 C490 C 0.30043 0.49578 0.35501
 N491 N 0.29954 0.47075 0.33880
 N492 N 0.31850 0.47038 0.29394
 C493 C 0.36101 0.49461 0.21808
 N494 N 0.36408 0.47103 0.21701
 N495 N 0.38520 0.47103 0.18012
 C496 C 0.40390 0.49453 0.14238
 N497 N 0.40064 0.51802 0.14257
 N498 N 0.37963 0.51810 0.18003
 C499 C 1.15597 0.66130 0.26229
 N500 N 1.15204 0.68193 0.29296
 N501 N 1.17161 0.70101 0.33712
 C502 C 1.19577 0.70007 0.35269
 N503 N 1.19986 0.67957 0.32164
 N504 N 1.18033 0.66057 0.27702
 C505 C 1.13332 0.63916 0.21770
 N506 N 1.13813 0.62062 0.17910
 N507 N 1.11698 0.59964 0.14175
 C508 C 1.09023 0.59632 0.14221
 N509 N 1.08550 0.61495 0.18055
 N510 N 1.10668 0.63605 0.21733
 C511 C 0.49764 0.15557 0.26962
 N512 N 0.52260 0.18028 0.28248
 N513 N 0.52310 0.20016 0.32586
 C514 C 0.49860 0.19608 0.35733
 N515 N 0.47364 0.17155 0.34363
 N516 N 0.47318 0.15163 0.30078
 C517 C 0.49712 0.13263 0.22632
 N518 N 0.47389 0.10583 0.22837
 N519 N 0.47359 0.08448 0.19186
 C520 C 0.49644 0.08917 0.15146
 N521 N 0.51962 0.11605 0.14879
 N522 N 0.52002 0.13738 0.18590
 C523 C 0.65842 0.50301 0.26768
 N524 N 0.65804 0.47798 0.28108
 N525 N 0.67732 0.47744 0.32476
 C526 C 0.69776 0.50195 0.35602
 N527 N 0.69835 0.52699 0.34171
 N528 N 0.67899 0.52750 0.29856
 C529 C 0.63604 0.50356 0.22420
 N530 N 0.63254 0.52687 0.22587
 N531 N 0.61145 0.52714 0.18944
 C532 C 0.59321 0.50419 0.14951
 N533 N 0.59685 0.48094 0.14716
 N534 N 0.61782 0.48057 0.18419
 C535 C 0.84432 0.34187 0.26889
 N536 N 0.81963 0.34219 0.28202
 N537 N 0.79981 0.32284 0.32554
 C538 C 0.80391 0.30238 0.35693
 N539 N 0.82840 0.30186 0.34292
 N540 N 0.84826 0.32130 0.29992
 C541 C 0.86723 0.36430 0.22546
 N542 N 0.89400 0.36777 0.22719
 N543 N 0.91532 0.38883 0.19066
 C544 C 0.91062 0.40709 0.15055
 N545 N 0.88377 0.40350 0.14821
 N546 N 0.86247 0.38255 0.18534
   
