data_POSCAR
  _audit_creation_date              2014-09-24
  _audit_creation_method            'ToBaCCo'
  _symmetry_space_group_name_H-M    'P1'
  _symmetry_Int_Tables_number       1
  _symmetry_cell_setting            triclinic
  loop_
  _symmetry_equiv_pos_as_xyz
 x,y,z
_cell_length_a 50.2388
_cell_length_b 50.2417
_cell_length_c 50.1754
_cell_angle_alpha 90.195200
_cell_angle_beta 90.270300
_cell_angle_gamma 90.267500
loop_
  _atom_site_label
  _atom_site_type_symbol
  _atom_site_fract_x
  _atom_site_fract_y
  _atom_site_fract_z
C1 C 0.72477 0.66874 0.96793
 H2 H 0.74399 0.66891 0.95828
 C3 C 0.70351 0.68278 0.95678
 H4 H 0.70637 0.69397 0.93859
 C5 C 0.69701 0.65269 1.00251
 H6 H 0.69425 0.64029 1.01980
 C7 C 0.67529 0.66645 0.99206
 H8 H 0.65602 0.66478 1.00153
 N9 N 0.72114 0.65394 0.99031
 C10 C 0.79917 0.63752 1.02493
 H11 H 0.79701 0.61621 1.02710
 C12 C 0.82240 0.65015 1.03363
 H13 H 0.83820 0.63856 1.04259
 C14 C 0.78116 0.67868 1.01064
 H15 H 0.76495 0.68967 1.00181
 C16 C 0.80416 0.69215 1.01912
 H17 H 0.80568 0.71352 1.01675
 Zn18 Zn 0.74924 0.63182 1.00211
 N19 N 0.77928 0.65178 1.01341
 C20 C 0.78397 0.61070 0.96337
 N21 N 0.75871 0.60972 0.97303
 C22 C 0.73951 0.59476 0.96084
 C23 C 0.74546 0.57994 0.93799
 C24 C 0.79074 0.59620 0.94068
 C25 C 0.73320 0.62543 1.05451
 C26 C 0.72425 0.61236 1.07725
 C27 C 0.72589 0.57072 1.05296
 C28 C 0.73487 0.58465 1.03061
 N29 N 0.73791 0.61157 1.03169
 H30 H 0.79879 0.62323 0.97278
 H31 H 0.71945 0.59478 0.96859
 H32 H 0.73003 0.56834 0.92818
 H33 H 0.81082 0.59739 0.93296
 H34 H 0.73609 0.64678 1.05485
 H35 H 0.72016 0.62376 1.09515
 H36 H 0.72313 0.54933 1.05178
 H37 H 0.73918 0.57397 1.01242
 C38 C 0.82500 0.67767 1.03060
 C39 C 0.67848 0.68136 0.96883
 C40 C 0.72035 0.58477 1.07645
 C41 C 0.77132 0.58082 0.92778
 C42 C 0.72902 0.33677 0.52352
 H43 H 0.74821 0.33576 0.53331
 C44 C 0.70743 0.32237 0.53359
 H45 H 0.71001 0.31009 0.55111
 C46 C 0.70170 0.35511 0.48961
 H47 H 0.69926 0.36848 0.47300
 C48 C 0.67966 0.34105 0.49901
 H49 H 0.66046 0.34346 0.48941
 N50 N 0.72577 0.35283 0.50196
 C51 C 0.80454 0.36891 0.46919
 H52 H 0.80345 0.39040 0.46844
 C53 C 0.82703 0.35592 0.45962
 H54 H 0.84336 0.36741 0.45147
 C55 C 0.78441 0.32766 0.48043
 H56 H 0.76763 0.31676 0.48831
 C57 C 0.80662 0.31384 0.47103
 H58 H 0.80696 0.29230 0.47177
 Zn59 Zn 0.75455 0.37489 0.49149
 N60 N 0.78393 0.35474 0.47956
 C61 C 0.78970 0.39389 0.53159
 N62 N 0.76453 0.39554 0.52160
 C63 C 0.74561 0.41039 0.53396
 C64 C 0.75180 0.42452 0.55726
 C65 C 0.79671 0.40769 0.55477
 C66 C 0.73865 0.38397 0.43931
 C67 C 0.72989 0.39825 0.41719
 C68 C 0.73291 0.43868 0.44333
 C69 C 0.74167 0.42360 0.46503
 N70 N 0.74389 0.39669 0.46275
 H71 H 0.80427 0.38145 0.52198
 H72 H 0.72560 0.41092 0.52591
 H73 H 0.73661 0.43611 0.56714
 H74 H 0.81673 0.40605 0.56270
 H75 H 0.74087 0.36260 0.43800
 H76 H 0.72526 0.38787 0.39877
 H77 H 0.73068 0.46002 0.44537
 H78 H 0.74641 0.43337 0.48367
 C79 C 0.82813 0.32816 0.46060
 C80 C 0.68248 0.32475 0.52134
 C81 C 0.72677 0.42581 0.41928
 C82 C 0.77759 0.42305 0.56777
 C83 C 0.22885 -0.16275 0.02324
 H84 H 0.24806 -0.16373 0.03301
 C85 C 0.20729 -0.17716 0.03336
 H86 H 0.20990 -0.18941 0.05090
 C87 C 0.20148 -0.14450 -0.01067
 H88 H 0.19901 -0.13116 -0.02730
 C89 C 0.17946 -0.15856 -0.00122
 H90 H 0.16025 -0.15619 -0.01081
 N91 N 0.22557 -0.14674 0.00165
 C92 C 0.30422 -0.13073 -0.03140
 H93 H 0.30311 -0.10925 -0.03222
 C94 C 0.32671 -0.14373 -0.04096
 H95 H 0.34301 -0.13225 -0.04919
 C96 C 0.28419 -0.17195 -0.01991
 H97 H 0.26744 -0.18283 -0.01194
 C98 C 0.30639 -0.18579 -0.02931
 H99 H 0.30677 -0.20732 -0.02846
 Zn100 Zn 0.25432 -0.12470 -0.00893
 N101 N 0.28366 -0.14488 -0.02090
 C102 C 0.28960 -0.10563 0.03099
 N103 N 0.26440 -0.10397 0.02109
 C104 C 0.24554 -0.08909 0.03350
 C105 C 0.25183 -0.07493 0.05676
 C106 C 0.29671 -0.09180 0.05412
 C107 C 0.23833 -0.11579 -0.06110
 C108 C 0.22948 -0.10162 -0.08325
 C109 C 0.23242 -0.06108 -0.05721
 C110 C 0.24127 -0.07608 -0.03550
 N111 N 0.24357 -0.10299 -0.03772
 H112 H 0.30413 -0.11811 0.02136
 H113 H 0.22550 -0.08856 0.02553
 H114 H 0.23668 -0.06331 0.06668
 H115 H 0.31676 -0.09346 0.06199
 H116 H 0.24063 -0.13716 -0.06234
 H117 H 0.22488 -0.11220 -0.10159
 H118 H 0.23016 -0.03973 -0.05511
 H119 H 0.24601 -0.06625 -0.01689
 C120 C 0.32785 -0.17148 -0.03985
 C121 C 0.18232 -0.17482 0.02113
 C122 C 0.22624 -0.07404 -0.08125
 C123 C 0.27766 -0.07641 0.06718
 C124 C 0.22522 0.16870 0.46730
 H125 H 0.24444 0.16899 0.45767
 C126 C 0.20392 0.18272 0.45619
 H127 H 0.20676 0.19399 0.43804
 C128 C 0.19748 0.15241 0.50178
 H129 H 0.19474 0.13993 0.51902
 C130 C 0.17572 0.16613 0.49136
 H131 H 0.15645 0.16436 0.50081
 N132 N 0.22162 0.15380 0.48961
 C133 C 0.29967 0.13745 0.52422
 H134 H 0.29755 0.11612 0.52629
 C135 C 0.32285 0.15009 0.53304
 H136 H 0.33866 0.13849 0.54197
 C137 C 0.28158 0.17863 0.51011
 H138 H 0.26535 0.18963 0.50130
 C139 C 0.30454 0.19212 0.51870
 H140 H 0.30601 0.21351 0.51645
 Zn141 Zn 0.24978 0.13172 0.50135
 N142 N 0.27976 0.15172 0.51274
 C143 C 0.28458 0.11083 0.46256
 N144 N 0.25933 0.10973 0.47222
 C145 C 0.24019 0.09471 0.46001
 C146 C 0.24621 0.07993 0.43715
 C147 C 0.29143 0.09637 0.43986
 C148 C 0.23373 0.12515 0.55373
 C149 C 0.22487 0.11197 0.57645
 C150 C 0.22670 0.07042 0.55209
 C151 C 0.23559 0.08442 0.52975
 N152 N 0.23850 0.11135 0.53088
 H153 H 0.29936 0.12341 0.47199
 H154 H 0.22013 0.09463 0.46776
 H155 H 0.23083 0.06828 0.42732
 H156 H 0.31150 0.09766 0.43216
 H157 H 0.23651 0.14651 0.55412
 H158 H 0.22071 0.12320 0.59441
 H159 H 0.22401 0.04904 0.55101
 H160 H 0.23994 0.07379 0.51155
 C161 C 0.32539 0.17763 0.53015
 C162 C 0.17888 0.18116 0.46820
 C163 C 0.22114 0.08440 0.57557
 C164 C 0.27207 0.08092 0.42695
 C165 C 0.16960 0.46721 0.22518
 H166 H 0.16982 0.45765 0.24447
 C167 C 0.18362 0.45602 0.20393
 H168 H 0.19483 0.43789 0.20687
 C169 C 0.15345 0.50157 0.19722
 H170 H 0.14100 0.51879 0.19438
 C171 C 0.16717 0.49108 0.17551
 H172 H 0.16545 0.50045 0.15616
 N173 N 0.15475 0.48949 0.22144
 C174 C 0.13815 0.52413 0.29944
 H175 H 0.11682 0.52613 0.29725
 C176 C 0.15072 0.53300 0.32266
 H177 H 0.13906 0.54192 0.33843
 C178 C 0.17941 0.51011 0.28149
 H179 H 0.19046 0.50133 0.26530
 C180 C 0.19282 0.51877 0.30448
 H181 H 0.21421 0.51658 0.30603
 Zn182 Zn 0.13260 0.50125 0.24952
 N183 N 0.15249 0.51267 0.27958
 C184 C 0.11153 0.46252 0.28436
 N185 N 0.11055 0.47216 0.25906
 C186 C 0.09560 0.45996 0.23984
 C187 C 0.08078 0.43712 0.24584
 C188 C 0.09703 0.43984 0.29118
 C189 C 0.12608 0.55353 0.23327
 C190 C 0.11291 0.57620 0.22436
 C191 C 0.07134 0.55186 0.22629
 C192 C 0.08533 0.52956 0.23521
 N193 N 0.11227 0.53071 0.23811
 H194 H 0.12406 0.47194 0.29920
 H195 H 0.09562 0.46770 0.21975
 H196 H 0.06919 0.42731 0.23040
 H197 H 0.09822 0.43214 0.31129
 H198 H 0.14745 0.55393 0.23604
 H199 H 0.12414 0.59416 0.22016
 H200 H 0.04996 0.55077 0.22363
 H201 H 0.07469 0.51138 0.23963
 C202 C 0.17826 0.53020 0.32528
 C203 C 0.18212 0.46793 0.17880
 C204 C 0.08533 0.57532 0.22067
 C205 C 0.08165 0.42694 0.27174
 C206 C -0.16403 0.02411 0.22806
 H207 H -0.16510 0.03386 0.24728
 C208 C -0.17834 0.03423 0.20640
 H209 H -0.19060 0.05173 0.20902
 C210 C -0.14563 -0.00970 0.20077
 H211 H -0.13226 -0.02627 0.19837
 C212 C -0.15958 -0.00027 0.17864
 H213 H -0.15706 -0.00988 0.15944
 N214 N -0.14798 0.00259 0.22486
 C215 C -0.13195 -0.03026 0.30372
 H216 H -0.11047 -0.03101 0.30258
 C217 C -0.14491 -0.03985 0.32626
 H218 H -0.13339 -0.04802 0.34258
 C219 C -0.17323 -0.01896 0.28367
 H220 H -0.18414 -0.01105 0.26689
 C221 C -0.18702 -0.02839 0.30593
 H222 H -0.20856 -0.02762 0.30632
 Zn223 Zn -0.12598 -0.00788 0.25372
 N224 N -0.14615 -0.01985 0.28312
 C225 C -0.10697 0.03208 0.28896
 N226 N -0.10529 0.02216 0.26375
 C227 C -0.09035 0.03452 0.24485
 C228 C -0.07614 0.05772 0.25112
 C229 C -0.09308 0.05516 0.29604
 C230 C -0.11693 -0.05998 0.23782
 C231 C -0.10265 -0.08207 0.22913
 C232 C -0.06219 -0.05598 0.23228
 C233 C -0.07727 -0.03430 0.24096
 N234 N -0.10419 -0.03658 0.24309
 H235 H -0.11948 0.02248 0.30351
 H236 H -0.08981 0.02652 0.22482
 H237 H -0.06445 0.06758 0.23595
 H238 H -0.09473 0.06304 0.31609
 H239 H -0.13831 -0.06128 0.23998
 H240 H -0.11304 -0.10046 0.22449
 H241 H -0.04084 -0.05395 0.23013
 H242 H -0.06748 -0.01569 0.24573
 C243 C -0.17267 -0.03886 0.32743
 C244 C -0.17587 0.02205 0.18139
 C245 C -0.07508 -0.07999 0.22612
 C246 C -0.07761 0.06815 0.27695
 C247 C 0.33634 0.52382 0.72924
 H248 H 0.33534 0.53352 0.74849
 C249 C 0.32196 0.53398 0.70765
 H250 H 0.30970 0.55146 0.71029
 C251 C 0.35466 0.49009 0.70179
 H252 H 0.36803 0.47352 0.69930
 C253 C 0.34062 0.49957 0.67975
 H254 H 0.34304 0.49008 0.66050
 N255 N 0.35238 0.50231 0.72594
 C256 C 0.36847 0.46931 0.80471
 H257 H 0.38996 0.46864 0.80363
 C258 C 0.35549 0.45959 0.82718
 H259 H 0.36698 0.45140 0.84351
 C260 C 0.32721 0.48051 0.78457
 H261 H 0.31631 0.48841 0.76778
 C262 C 0.31339 0.47095 0.80675
 H263 H 0.29184 0.47161 0.80708
 Zn264 Zn 0.37444 0.49176 0.75471
 N265 N 0.35429 0.47972 0.78410
 C266 C 0.39354 0.53169 0.78997
 N267 N 0.39515 0.52178 0.76475
 C268 C 0.41000 0.53418 0.74581
 C269 C 0.42418 0.55742 0.75203
 C270 C 0.40740 0.55481 0.79701
 C271 C 0.38345 0.43971 0.73866
 C272 C 0.39770 0.41764 0.72987
 C273 C 0.43817 0.44372 0.73300
 C274 C 0.42312 0.46537 0.74179
 N275 N 0.39620 0.46309 0.74397
 H276 H 0.38109 0.52206 0.80456
 H277 H 0.41049 0.52619 0.72577
 H278 H 0.43578 0.56731 0.73682
 H279 H 0.40580 0.56268 0.81707
 H280 H 0.36207 0.43841 0.74086
 H281 H 0.38730 0.39927 0.72519
 H282 H 0.45952 0.44575 0.73080
 H283 H 0.43292 0.48397 0.74658
 C284 C 0.32772 0.46045 0.82825
 C285 C 0.32435 0.52186 0.68263
 C286 C 0.42526 0.41973 0.72679
 C287 C 0.42276 0.56784 0.77787
 C288 C 0.67019 0.96777 0.72577
 H289 H 0.67049 0.95811 0.74500
 C290 C 0.68415 0.95671 0.70440
 H291 H 0.69540 0.93859 0.70722
 C292 C 0.65387 1.00224 0.69804
 H293 H 0.64138 1.01945 0.69531
 C294 C 0.66754 0.99188 0.67622
 H295 H 0.66572 1.00134 0.65693
 N296 N 0.65528 0.99004 0.72219
 C297 C 0.63870 1.02427 0.80039
 H298 H 0.61736 1.02623 0.79824
 C299 C 0.65126 1.03309 0.82364
 H300 H 0.63953 1.04192 0.83942
 C301 C 0.67996 1.01045 0.78232
 H302 H 0.69102 1.00176 0.76608
 C303 C 0.69339 1.01905 0.80533
 H304 H 0.71480 1.01689 0.80677
 Zn305 Zn 0.63314 1.00161 0.75037
 N306 N 0.65304 1.01294 0.78047
 C307 C 0.61216 0.96267 0.78506
 N308 N 0.61117 0.97242 0.75980
 C309 C 0.59623 0.96028 0.74053
 C310 C 0.58143 0.93741 0.74643
 C311 C 0.59767 0.93996 0.79178
 C312 C 0.62645 1.05395 0.73436
 C313 C 0.61322 1.07659 0.72546
 C314 C 0.57174 1.05209 0.72722
 C315 C 0.58579 1.02982 0.73614
 N316 N 0.61272 1.03106 0.73910
 H317 H 0.62467 0.97205 0.79993
 H318 H 0.59624 0.96810 0.72047
 H319 H 0.56984 0.92765 0.73095
 H320 H 0.59886 0.93218 0.81187
 H321 H 0.64782 1.05442 0.73718
 H322 H 0.62440 1.09459 0.72131
 H323 H 0.55037 1.05091 0.72448
 H324 H 0.57520 1.01160 0.74048
 C325 C 0.67884 1.03037 0.82622
 C326 C 0.68254 0.96874 0.67934
 C327 C 0.58566 1.07560 0.72167
 C328 C 0.58230 0.92712 0.77229
 C329 C 0.02319 0.22836 -0.16276
 H330 H 0.03292 0.24759 -0.16368
 C331 C 0.03339 0.20685 -0.17715
 H332 H 0.05094 0.20952 -0.18934
 C333 C -0.01067 0.20089 -0.14464
 H334 H -0.02731 0.19836 -0.13134
 C335 C -0.00115 0.17892 -0.15869
 H336 H -0.01068 0.15968 -0.15636
 N337 N 0.00160 0.22501 -0.14681
 C338 C -0.03143 0.30359 -0.13061
 H339 H -0.03226 0.30239 -0.10910
 C340 C -0.04101 0.32613 -0.14357
 H341 H -0.04924 0.34237 -0.13204
 C342 C -0.01997 0.28373 -0.17193
 H343 H -0.01200 0.26703 -0.18287
 C344 C -0.02938 0.30598 -0.18573
 H345 H -0.02855 0.30644 -0.20729
 Zn346 Zn -0.00901 0.25366 -0.12469
 N347 N -0.02095 0.28309 -0.14483
 C348 C 0.03088 0.28884 -0.10541
 N349 N 0.02096 0.26364 -0.10385
 C350 C 0.03335 0.24470 -0.08900
 C351 C 0.05661 0.25089 -0.07480
 C352 C 0.05401 0.29586 -0.09154
 C353 C -0.06111 0.23761 -0.11591
 C354 C -0.08326 0.22874 -0.10178
 C355 C -0.05729 0.23159 -0.06113
 C356 C -0.03558 0.24046 -0.07609
 N357 N -0.03777 0.24282 -0.10303
 H358 H 0.02126 0.30344 -0.11786
 H359 H 0.02536 0.22467 -0.08854
 H360 H 0.06651 0.23567 -0.06323
 H361 H 0.06190 0.31590 -0.09314
 H362 H -0.06233 0.23996 -0.13731
 H363 H -0.10157 0.22418 -0.11242
 H364 H -0.05522 0.22929 -0.03974
 H365 H -0.01700 0.24518 -0.06620
 C366 C -0.03993 0.32738 -0.17136
 C367 C 0.02123 0.18185 -0.17487
 C368 C -0.08129 0.22545 -0.07416
 C369 C 0.06705 0.27671 -0.07621
 C370 C 0.46808 0.22510 0.16924
 H371 H 0.45841 0.24429 0.16944
 C372 C 0.45701 0.20379 0.18331
 H373 H 0.43887 0.20661 0.19454
 C374 C 0.50258 0.19740 0.15307
 H375 H 0.51980 0.19468 0.14059
 C376 C 0.49221 0.17565 0.16684
 H377 H 0.50167 0.15639 0.16512
 N378 N 0.49037 0.22151 0.15435
 C379 C 0.52462 0.29962 0.13752
 H380 H 0.52664 0.29742 0.11617
 C381 C 0.53337 0.32289 0.15004
 H382 H 0.54220 0.33868 0.13832
 C383 C 0.51069 0.28166 0.17888
 H384 H 0.50198 0.26546 0.18999
 C385 C 0.51922 0.30471 0.19224
 H386 H 0.51700 0.30627 0.21365
 Zn387 Zn 0.50195 0.24962 0.13209
 N388 N 0.51327 0.27973 0.15194
 C389 C 0.46302 0.28418 0.11101
 N390 N 0.47276 0.25896 0.11006
 C391 C 0.46058 0.23969 0.09518
 C392 C 0.43767 0.24553 0.08041
 C393 C 0.44025 0.29085 0.09655
 C394 C 0.55430 0.23370 0.12549
 C395 C 0.57697 0.22485 0.11229
 C396 C 0.55250 0.22648 0.07073
 C397 C 0.53021 0.23535 0.08475
 N398 N 0.53142 0.23836 0.11171
 H399 H 0.47242 0.29906 0.12348
 H400 H 0.46841 0.21966 0.09523
 H401 H 0.42787 0.23004 0.06888
 H402 H 0.43247 0.31089 0.09772
 H403 H 0.55476 0.23655 0.14687
 H404 H 0.59497 0.22078 0.12351
 H405 H 0.55135 0.22371 0.04933
 H406 H 0.51198 0.23962 0.07412
 C407 C 0.53053 0.32554 0.17761
 C408 C 0.46905 0.17878 0.18182
 C409 C 0.57602 0.22103 0.08470
 C410 C 0.42737 0.27135 0.08126
 C411 C 0.96694 0.72498 0.66995
 H412 H 0.95733 0.74421 0.67026
 C413 C 0.95586 0.70366 0.68398
 H414 H 0.93777 0.70648 0.69528
 C415 C 1.00132 0.69726 0.65357
 H416 H 1.01850 0.69454 0.64104
 C417 C 0.99094 0.67548 0.66730
 H418 H 1.00036 0.65621 0.66550
 N419 N 0.98918 0.72140 0.65499
 C420 C 1.02367 0.79949 0.63859
 H421 H 1.02565 0.79741 0.61722
 C422 C 1.03254 0.82264 0.65124
 H423 H 1.04142 0.83846 0.63961
 C424 C 1.00974 0.78132 0.67985
 H425 H 1.00100 0.76508 0.69088
 C426 C 1.01839 0.80425 0.69335
 H427 H 1.01623 0.80568 0.71477
 Zn428 Zn 1.00085 0.74959 0.63288
 N429 N 1.01227 0.77955 0.65290
 C430 C 0.96205 0.78440 0.61196
 N431 N 0.97172 0.75916 0.61088
 C432 C 0.95953 0.74003 0.59581
 C433 C 0.93672 0.74606 0.58097
 C434 C 0.93939 0.79126 0.59744
 C435 C 1.05315 0.73354 0.62623
 C436 C 1.07582 0.72475 0.61299
 C437 C 1.05141 0.72676 0.57142
 C438 C 1.02912 0.73557 0.58547
 N439 N 1.03030 0.73837 0.61245
 H440 H 0.97146 0.79916 0.62458
 H441 H 0.96729 0.71998 0.59574
 H442 H 0.92692 0.73070 0.56927
 H443 H 0.93169 0.81133 0.59870
 H444 H 1.05358 0.73624 0.64764
 H445 H 1.09379 0.72055 0.62421
 H446 H 1.05029 0.72417 0.55000
 H447 H 1.01093 0.73997 0.57485
 C448 C 1.02978 0.82512 0.67883
 C449 C 0.96785 0.67862 0.68238
 C450 C 1.07490 0.72115 0.58538
 C451 C 0.92652 0.77191 0.58193
 C452 C 0.52363 0.72973 0.33555
 H453 H 0.53339 0.74894 0.33451
 C454 C 0.53371 0.70816 0.32116
 H455 H 0.55119 0.71076 0.30887
 C456 C 0.48983 0.70238 0.35396
 H457 H 0.47327 0.69991 0.36736
 C458 C 0.49923 0.68035 0.33991
 H459 H 0.48968 0.66114 0.34236
 N460 N 0.50213 0.72647 0.35164
 C461 C 0.46935 0.80516 0.36784
 H462 H 0.46865 0.80399 0.38935
 C463 C 0.45972 0.82769 0.35490
 H464 H 0.45158 0.84393 0.36652
 C465 C 0.48054 0.78521 0.32648
 H466 H 0.48842 0.76847 0.31554
 C467 C 0.47107 0.80744 0.31269
 H468 H 0.47180 0.80780 0.29111
 Zn469 Zn 0.49168 0.75521 0.37374
 N470 N 0.47971 0.78462 0.35359
 C471 C 0.53169 0.79035 0.39285
 N472 N 0.52174 0.76517 0.39446
 C473 C 0.53408 0.74624 0.40937
 C474 C 0.55729 0.75245 0.42363
 C475 C 0.55478 0.79738 0.40679
 C476 C 0.43958 0.73924 0.38281
 C477 C 0.41750 0.73050 0.39711
 C478 C 0.44362 0.73358 0.43760
 C479 C 0.46528 0.74232 0.42250
 N480 N 0.46299 0.74450 0.39555
 H481 H 0.52211 0.80493 0.38036
 H482 H 0.52606 0.72623 0.40987
 H483 H 0.56713 0.73726 0.43529
 H484 H 0.56267 0.81742 0.40519
 H485 H 0.43827 0.74145 0.36140
 H486 H 0.39910 0.72586 0.38671
 H487 H 0.44565 0.73138 0.45898
 H488 H 0.48390 0.74708 0.43230
 C489 C 0.46062 0.82890 0.32708
 C490 C 0.52152 0.68319 0.32359
 C491 C 0.41960 0.72742 0.42471
 C492 C 0.56774 0.77826 0.42223
 C493 C 0.36306 0.00269 0.24923
 C494 C 0.12288 1.00654 0.75093
 C495 C 0.62265 0.50763 0.24929
 C496 C 0.86213 0.50248 0.75007
 C497 C 0.24926 0.36136 0.00298
 C498 C 0.75080 0.12261 1.00653
 C499 C 0.24996 0.62345 0.50696
 C500 C 0.74928 0.86301 0.50285
 C501 C 0.00288 0.24931 0.36249
 C502 C 1.00693 0.75028 0.12239
 C503 C 0.50704 0.25008 0.62269
 C504 C 0.50286 0.74957 0.86257
 C505 C 0.43055 -0.10607 0.29261
 N506 N 0.41292 -0.10788 0.27213
 N507 N 0.40106 -0.08613 0.26276
 C508 C 0.40646 -0.06192 0.27359
 N509 N 0.42414 -0.06009 0.29403
 N510 N 0.43600 -0.08184 0.30339
 C511 C 0.44191 -0.12963 0.30396
 C512 C 0.45093 -0.14925 0.31436
 C513 C 0.39231 -0.03882 0.26470
 C514 C 0.37959 -0.01979 0.25757
 C515 C 0.92958 0.39376 0.79358
 N516 N 0.93463 0.41791 0.80473
 N517 N 0.92280 0.43967 0.79537
 C518 C 0.90555 0.43794 0.77456
 N519 N 0.90056 0.41381 0.76335
 N520 N 0.91239 0.39205 0.77272
 C521 C 0.94092 0.37016 0.80488
 C522 C 0.94991 0.35050 0.81521
 C523 C 0.89141 0.46103 0.76563
 C524 C 0.87868 0.48004 0.75847
 C525 C 0.05445 1.11558 0.79225
 N526 N 0.07261 1.11721 0.77241
 N527 N 0.08477 1.09539 0.76358
 C528 C 0.07914 1.07128 0.77432
 N529 N 0.06094 1.06964 0.79413
 N530 N 0.04878 1.09146 0.80295
 C531 C 0.04244 1.13920 0.80284
 C532 C 0.03266 1.15884 0.81251
 C533 C 0.09342 1.04809 0.76588
 C534 C 0.10622 1.02901 0.75904
 C535 C 0.55440 0.61675 0.29069
 N536 N 0.57218 0.61826 0.27050
 N537 N 0.58426 0.59640 0.26165
 C538 C 0.57892 0.57237 0.27272
 N539 N 0.56109 0.57085 0.29287
 N540 N 0.54901 0.59271 0.30172
 C541 C 0.54250 0.64043 0.30128
 C542 C 0.53282 0.66011 0.31096
 C543 C 0.59316 0.54916 0.26425
 C544 C 0.60596 0.53008 0.25740
 C545 C 0.55777 0.39484 0.21054
 N546 N 0.55272 0.41802 0.19772
 N547 N 0.56376 0.44073 0.20614
 C548 C 0.58018 0.44095 0.22767
 N549 N 0.58516 0.41779 0.24055
 N550 N 0.57413 0.39508 0.23212
 C551 C 0.54752 0.37017 0.20016
 C552 C 0.53950 0.34963 0.19048
 C553 C 0.59375 0.46494 0.23551
 C554 C 0.60618 0.48460 0.24181
 C555 C 0.05747 0.89407 0.71211
 N556 N 0.05208 0.91741 0.69971
 N557 N 0.06326 0.94003 0.70819
 C558 C 0.08017 0.94000 0.72933
 N559 N 0.08549 0.91668 0.74178
 N560 N 0.07431 0.89406 0.73330
 C561 C 0.04705 0.86951 0.70163
 C562 C 0.03890 0.84908 0.69184
 C563 C 0.09386 0.96392 0.73719
 C564 C 0.10636 0.98353 0.74349
 C565 C 0.93227 0.61252 0.71329
 N566 N 0.91137 0.61428 0.73019
 N567 N 0.89866 0.59238 0.73815
 C568 C 0.90646 0.56806 0.72943
 N569 N 0.92740 0.56629 0.71258
 N570 N 0.94011 0.58819 0.70463
 C571 C 0.94503 0.63614 0.70349
 C572 C 0.95551 0.65572 0.69440
 C573 C 0.89185 0.54465 0.73692
 C574 C 0.87887 0.52534 0.74294
 C575 C 0.43339 0.11268 0.21265
 N576 N 0.41243 0.11446 0.22949
 N577 N 0.39968 0.09256 0.23740
 C578 C 0.40748 0.06823 0.22869
 N579 N 0.42846 0.06646 0.21189
 N580 N 0.44122 0.08835 0.20399
 C581 C 0.44618 0.13630 0.20289
 C582 C 0.45669 0.15588 0.19382
 C583 C 0.39283 0.04484 0.23613
 C584 C 0.37983 0.02553 0.24212
 C585 C 0.29258 0.42936 -0.10563
 N586 N 0.27226 0.41158 -0.10759
 N587 N 0.26291 0.39958 -0.08589
 C588 C 0.27359 0.40498 -0.06158
 N589 N 0.29386 0.42281 -0.05960
 N590 N 0.30321 0.43481 -0.08130
 C591 C 0.30390 0.44091 -0.12914
 C592 C 0.31426 0.45008 -0.14872
 C593 C 0.26470 0.39072 -0.03852
 C594 C 0.25758 0.37793 -0.01951
 C595 C 0.79242 0.93059 0.39391
 N596 N 0.77165 0.91332 0.39223
 N597 N 0.76238 0.90146 0.41404
 C598 C 0.77359 0.90650 0.43819
 N599 N 0.79431 0.92382 0.43989
 N600 N 0.80358 0.93568 0.41808
 C601 C 0.80364 0.94195 0.37026
 C602 C 0.81392 0.95096 0.35057
 C603 C 0.76475 0.89233 0.46133
 C604 C 0.75765 0.87959 0.48038
 C605 C 0.79203 0.05441 1.11601
 N606 N 0.77207 0.07243 1.11750
 N607 N 0.76326 0.08451 1.09558
 C608 C 0.77413 0.07894 1.07150
 N609 N 0.79404 0.06087 1.07001
 N610 N 0.80284 0.04879 1.09193
 C611 C 0.80259 0.04250 1.13975
 C612 C 0.81226 0.03280 1.15948
 C613 C 0.76570 0.09316 1.04821
 C614 C 0.75889 0.10594 1.02907
 C615 C 0.29146 0.55502 0.61619
 N616 N 0.30226 0.54952 0.59208
 N617 N 0.29342 0.56167 0.57021
 C618 C 0.27348 0.57970 0.57181
 N619 N 0.26263 0.58517 0.59591
 N620 N 0.27148 0.57301 0.61777
 C621 C 0.30205 0.54302 0.63987
 C622 C 0.31173 0.53326 0.65955
 C623 C 0.26500 0.59399 0.54858
 C624 C 0.25813 0.60679 0.52947
 C625 C 0.21131 0.55795 0.39440
 N626 N 0.19878 0.55271 0.41771
 N627 N 0.20720 0.56392 0.44036
 C628 C 0.22841 0.58070 0.44038
 N629 N 0.24099 0.58587 0.41709
 N630 N 0.23257 0.57467 0.39444
 C631 C 0.20090 0.54751 0.36979
 C632 C 0.19118 0.53934 0.34931
 C633 C 0.23623 0.59441 0.46433
 C634 C 0.24251 0.60693 0.48395
 C635 C 0.71155 0.05740 0.89400
 N636 N 0.73282 0.07411 0.89397
 N637 N 0.74138 0.08523 0.91661
 C638 C 0.72894 0.07998 0.93997
 N639 N 0.70772 0.06321 0.94001
 N640 N 0.69916 0.05208 0.91737
 C641 C 0.70098 0.04706 0.86941
 C642 C 0.69112 0.03897 0.84896
 C643 C 0.73689 0.09362 0.96391
 C644 C 0.74326 0.10610 0.98353
 C645 C 0.71302 0.93313 0.61308
 N646 N 0.72995 0.91226 0.61479
 N647 N 0.73776 0.89954 0.59284
 C648 C 0.72886 0.90729 0.56852
 N649 N 0.71197 0.92820 0.56680
 N650 N 0.70417 0.94091 0.58875
 C651 C 0.70338 0.94590 0.63675
 C652 C 0.69442 0.95640 0.65639
 C653 C 0.73622 0.89269 0.54507
 C654 C 0.74218 0.87973 0.52573
 C655 C 0.21285 0.43192 0.11287
 N656 N 0.22927 0.41066 0.11480
 N657 N 0.23714 0.39782 0.09294
 C658 C 0.22880 0.40583 0.06851
 N659 N 0.21242 0.42712 0.06658
 N660 N 0.20456 0.43996 0.08843
 C661 C 0.20312 0.44484 0.13643
 C662 C 0.19409 0.45545 0.15596
 C663 C 0.23621 0.39112 0.04514
 C664 C 0.24218 0.37810 0.02584
 C665 C -0.10562 0.29298 0.43009
 N666 N -0.08143 0.30407 0.43510
 N667 N -0.05972 0.29465 0.42326
 C668 C -0.06153 0.27386 0.40604
 N669 N -0.08571 0.26272 0.40108
 N670 N -0.10743 0.27213 0.41293
 C671 C -0.12918 0.30433 0.44144
 C672 C -0.14880 0.31469 0.45043
 C673 C -0.03849 0.26489 0.39186
 C674 C -0.01952 0.25771 0.37910
 C675 C 0.39415 0.79333 0.92978
 N676 N 0.39239 0.77252 0.91256
 N677 N 0.41414 0.76310 0.90078
 C678 C 0.43831 0.77420 0.90585
 N679 N 0.44009 0.79496 0.92312
 N680 N 0.41834 0.80437 0.93490
 C681 C 0.37058 0.80468 0.94107
 C682 C 0.35094 0.81504 0.95002
 C683 C 0.46139 0.76522 0.89175
 C684 C 0.48040 0.75802 0.87907
 C685 C 1.11594 0.79208 0.05405
 N686 N 1.11748 0.77184 0.07179
 N687 N 1.09564 0.76291 0.08388
 C688 C 1.07159 0.77394 0.07858
 N689 N 1.07004 0.79414 0.06079
 N690 N 1.09189 0.80306 0.04871
 C691 C 1.13960 0.80275 0.04215
 C692 C 1.15926 0.81249 0.03245
 C693 C 1.04840 0.76538 0.09284
 C694 C 1.02935 0.75847 0.10566
 C695 C 0.61606 0.29173 0.55425
 N696 N 0.61759 0.27148 0.57200
 N697 N 0.59575 0.26259 0.58410
 C698 C 0.57172 0.27365 0.57883
 N699 N 0.57018 0.29385 0.56105
 N700 N 0.59202 0.30274 0.54894
 C701 C 0.63972 0.30237 0.54233
 C702 C 0.65940 0.31209 0.53264
 C703 C 0.54853 0.26513 0.59312
 C704 C 0.52947 0.25824 0.60596
 C705 C 0.39446 0.21092 0.55759
 N706 N 0.41774 0.19840 0.55238
 N707 N 0.44039 0.20692 0.56348
 C708 C 0.44045 0.22824 0.58013
 N709 N 0.41718 0.24081 0.58527
 N710 N 0.39453 0.23229 0.57417
 C711 C 0.36986 0.20043 0.54727
 C712 C 0.34939 0.19063 0.53919
 C713 C 0.46439 0.23617 0.59375
 C714 C 0.48402 0.24253 0.60621
 C715 C 0.89421 0.71099 0.05764
 N716 N 0.91744 0.69832 0.05256
 N717 N 0.94013 0.70688 0.06355
 C718 C 0.94028 0.72839 0.07995
 N719 N 0.91707 0.74112 0.08496
 N720 N 0.89437 0.73255 0.07397
 C721 C 0.86957 0.70047 0.04746
 C722 C 0.84906 0.69067 0.03950
 C723 C 0.96426 0.73635 0.09350
 C724 C 0.98390 0.74274 0.10592
 C725 C 0.61254 0.71238 0.93309
 N726 N 0.58818 0.70354 0.94067
 N727 N 0.56634 0.71155 0.92790
 C728 C 0.56820 0.72866 0.90714
 N729 N 0.59255 0.73755 0.89959
 N730 N 0.61439 0.72954 0.91236
 C731 C 0.63610 0.70253 0.94590
 C732 C 0.65564 0.69341 0.95644
 C733 C 0.54487 0.73623 0.89245
 C734 C 0.52562 0.74233 0.87940
 C735 C 0.11283 0.21212 0.43259
 N736 N 0.11462 0.22916 0.41177
 N737 N 0.09273 0.23717 0.39907
 C738 C 0.06840 0.22837 0.40678
 N739 N 0.06660 0.21137 0.42764
 N740 N 0.08849 0.20337 0.44034
 C741 C 0.13643 0.20229 0.44535
 C742 C 0.15600 0.19318 0.45585
 C743 C 0.04501 0.23594 0.39218
 C744 C 0.02571 0.24205 0.37922
 C745 C 0.55006 0.14124 0.69034
 N746 N 0.53120 0.13894 0.67104
 N747 N 0.52178 0.16053 0.65893
 C748 C 0.53096 0.18507 0.66574
 N749 N 0.54977 0.18738 0.68509
 N750 N 0.55918 0.16579 0.69721
 C751 C 0.56158 0.11795 0.70204
 C752 C 0.57208 0.09851 0.71129
 C753 C 0.52209 0.20810 0.65149
 C754 C 0.51509 0.22723 0.63886
 C755 C 1.04988 0.64117 0.18964
 N756 N 1.05923 0.66565 0.19642
 N757 N 1.04985 0.68731 0.18442
 C758 C 1.03083 0.68514 0.16525
 N759 N 1.02142 0.66066 0.15852
 N760 N 1.03080 0.63900 0.17053
 C761 C 1.06135 0.61779 0.20121
 C762 C 1.07181 0.59829 0.21038
 C763 C 1.02198 0.70824 0.15110
 C764 C 1.01498 0.72741 0.13852
 C765 C 0.96325 0.85623 0.19417
 N766 N 0.98145 0.85954 0.17457
 N767 N 0.99139 0.83851 0.16186
 C768 C 0.98343 0.81354 0.16836
 N769 N 0.96530 0.81023 0.18802
 N770 N 0.95536 0.83126 0.20074
 C771 C 0.95086 0.87889 0.20626
 C772 C 0.93953 0.89777 0.21569
 C773 C 0.99247 0.79112 0.15320
 C774 C 0.99936 0.77250 0.13971
 C775 C 0.46350 0.35602 0.69458
 N776 N 0.45576 0.33103 0.70125
 N777 N 0.46566 0.31002 0.68848
 C778 C 0.48359 0.31337 0.66865
 N779 N 0.49141 0.33835 0.66204
 N780 N 0.48151 0.35937 0.67481
 C781 C 0.45114 0.37865 0.70675
 C782 C 0.43984 0.39751 0.71627
 C783 C 0.49260 0.29095 0.65347
 C784 C 0.49948 0.27233 0.63997
 C785 C 0.45838 0.63741 0.80052
 N786 N 0.44538 0.66074 0.79700
 N787 N 0.45514 0.68325 0.80733
 C788 C 0.47821 0.68311 0.82147
 N789 N 0.49127 0.65979 0.82489
 N790 N 0.48151 0.63728 0.81457
 C791 C 0.44666 0.61290 0.79145
 C792 C 0.43614 0.59230 0.78477
 C793 C 0.48745 0.70683 0.83460
 C794 C 0.49468 0.72639 0.84666
 C795 C -0.04180 0.13752 0.29991
 N796 N -0.05469 0.16092 0.29643
 N797 N -0.04489 0.18335 0.30689
 C798 C -0.02190 0.18305 0.32115
 N799 N -0.00895 0.15967 0.32455
 N800 N -0.01875 0.13724 0.31408
 C801 C -0.05358 0.11309 0.29070
 C802 C -0.06416 0.09255 0.28392
 C803 C -0.01262 0.20669 0.33441
 C804 C -0.00535 0.22619 0.34655
 C805 C 0.04556 0.35809 0.29486
 N806 N 0.05889 0.33478 0.29258
 N807 N 0.04940 0.31271 0.30379
 C808 C 0.02629 0.31327 0.31762
 N809 N 0.01289 0.33655 0.31979
 N810 N 0.02239 0.35863 0.30859
 C811 C 0.05724 0.38233 0.28530
 C812 C 0.06789 0.40272 0.27847
 C813 C 0.01750 0.29024 0.33198
 C814 C 0.01064 0.27142 0.34516
 C815 C 0.54605 0.85826 0.79514
 N816 N 0.55942 0.83496 0.79302
 N817 N 0.54982 0.81289 0.80415
 C818 C 0.52656 0.81344 0.81774
 N819 N 0.51313 0.83671 0.81975
 N820 N 0.52273 0.85879 0.80863
 C821 C 0.55781 0.88250 0.78568
 C822 C 0.56851 0.90290 0.77893
 C823 C 0.51766 0.79043 0.83205
 C824 C 0.51072 0.77162 0.84522
 C825 C 0.69002 0.55049 0.14015
 N826 N 0.69708 0.55946 0.16473
 N827 N 0.68502 0.55007 0.18637
 C828 C 0.66552 0.53143 0.18409
 N829 N 0.65852 0.52240 0.15952
 N830 N 0.67058 0.53179 0.13788
 C831 C 0.70166 0.56201 0.11680
 C832 C 0.71087 0.57253 0.09733
 C833 C 0.65134 0.52260 0.20719
 C834 C 0.63876 0.51563 0.22637
 C835 C 0.19007 1.04904 0.64154
 N836 N 0.19709 1.05820 0.66605
 N837 N 0.18507 1.04889 0.68776
 C838 C 0.16566 1.03016 0.68560
 N839 N 0.15869 1.02094 0.66109
 N840 N 0.17070 1.03025 0.63938
 C841 C 0.20166 1.06046 0.61811
 C842 C 0.21084 1.07089 0.59858
 C843 C 0.15152 1.02140 0.70875
 C844 C 0.13897 1.01449 0.72798
 C845 C 0.19489 0.96298 0.85701
 N846 N 0.20162 0.95539 0.83198
 N847 N 0.18884 0.96532 0.81094
 C848 C 0.16893 0.98313 0.81430
 N849 N 0.16226 0.99079 0.83933
 N850 N 0.17504 0.98086 0.86037
 C851 C 0.20707 0.95055 0.87966
 C852 C 0.21658 0.93917 0.89852
 C853 C 0.15372 0.99214 0.79185
 C854 C 0.14020 0.99900 0.77320
 C855 C 0.69458 0.46410 0.35545
 N856 N 0.70123 0.45638 0.33043
 N857 N 0.68846 0.46630 0.30937
 C858 C 0.66865 0.48422 0.31270
 N859 N 0.66206 0.49202 0.33772
 N860 N 0.67483 0.48210 0.35877
 C861 C 0.70675 0.45172 0.37812
 C862 C 0.71626 0.44041 0.39702
 C863 C 0.65346 0.49324 0.29024
 C864 C 0.63996 0.50010 0.27158
 C865 C 0.80019 0.45844 0.63754
 N866 N 0.81429 0.48152 0.63748
 N867 N 0.82460 0.49119 0.66006
 C868 C 0.82114 0.47807 0.68338
 N869 N 0.80696 0.45504 0.68345
 N870 N 0.79664 0.44537 0.66088
 C871 C 0.79113 0.44681 0.61296
 C872 C 0.78446 0.43636 0.59231
 C873 C 0.83425 0.48722 0.70718
 C874 C 0.84628 0.49438 0.72680
 C875 C 0.30062 -0.04106 0.13685
 N876 N 0.31495 -0.01811 0.13672
 N877 N 0.32539 -0.00850 0.15926
 C878 C 0.32183 -0.02153 0.18261
 N879 N 0.30742 -0.04442 0.18276
 N880 N 0.29697 -0.05404 0.16022
 C881 C 0.29141 -0.05266 0.11230
 C882 C 0.28463 -0.06310 0.09168
 C883 C 0.33506 -0.01245 0.20637
 C884 C 0.34716 -0.00535 0.22598
 C885 C 0.29531 0.04499 0.35805
 N886 N 0.30915 0.02188 0.35863
 N887 N 0.32039 0.01246 0.33654
 C888 C 0.31815 0.02585 0.31322
 N889 N 0.30421 0.04889 0.31262
 N890 N 0.29296 0.05831 0.33470
 C891 C 0.28570 0.05660 0.38230
 C892 C 0.27883 0.06721 0.40271
 C893 C 0.33253 0.01714 0.29018
 C894 C 0.34573 0.01036 0.27135
 C895 C 0.79438 0.54482 0.85886
 N896 N 0.80814 0.52167 0.85941
 N897 N 0.81936 0.51223 0.83732
 C898 C 0.81717 0.52566 0.81401
 N899 N 0.80331 0.54874 0.81343
 N900 N 0.79209 0.55818 0.83552
 C901 C 0.78482 0.55645 0.88312
 C902 C 0.77801 0.56708 0.90354
 C903 C 0.83155 0.51694 0.79098
 C904 C 0.84476 0.51016 0.77215
 C905 C 0.14073 0.69035 0.54977
 N906 N 0.13855 0.67104 0.53091
 N907 N 0.16022 0.65911 0.52152
 C908 C 0.18471 0.66609 0.53071
 N909 N 0.18690 0.68545 0.54951
 N910 N 0.16523 0.69739 0.55890
 C911 C 0.11735 0.70185 0.56128
 C912 C 0.09786 0.71094 0.57178
 C913 C 0.20784 0.65201 0.52188
 C914 C 0.22704 0.63950 0.51493
 C915 C 0.64180 0.18997 1.04922
 N916 N 0.66631 0.19681 1.05850
 N917 N 0.68794 0.18478 1.04914
 C918 C 0.68572 0.16555 1.03023
 N919 N 0.66122 0.15877 1.02089
 N920 N 0.63959 0.17079 1.03025
 C921 C 0.61845 0.20157 1.06069
 C922 C 0.59897 0.21074 1.07116
 C923 C 0.70880 0.15137 1.02142
 C924 C 0.72794 0.13877 1.01449
 C925 C 0.85695 0.19423 0.96280
 N926 N 0.86025 0.17442 0.98079
 N927 N 0.83920 0.16171 0.99074
 C928 C 0.81422 0.16841 0.98299
 N929 N 0.81092 0.18829 0.96507
 N930 N 0.83197 0.20100 0.95513
 C931 C 0.87960 0.20634 0.95038
 C932 C 0.89848 0.21582 0.93902
 C933 C 0.79175 0.15330 0.99203
 C934 C 0.77309 0.13985 0.99894
 C935 C 0.35585 0.69536 0.46313
 N936 N 0.35919 0.67578 0.48136
 N937 N 0.33817 0.66304 0.49134
 C938 C 0.31319 0.66949 0.48338
 N939 N 0.30984 0.68914 0.46523
 N940 N 0.33086 0.70188 0.45525
 C941 C 0.37849 0.70748 0.45069
 C942 C 0.39736 0.71695 0.43934
 C943 C 0.29078 0.65431 0.49246
 C944 C 0.27217 0.64079 0.49937
 C945 C 0.63715 0.80097 0.45820
 N946 N 0.66059 0.79720 0.44546
 N947 N 0.68306 0.80754 0.45529
 C948 C 0.68277 0.82198 0.47818
 N949 N 0.65935 0.82567 0.49097
 N950 N 0.63688 0.81532 0.48113
 C951 C 0.61269 0.79187 0.44636
 C952 C 0.59215 0.78517 0.43573
 C953 C 0.70648 0.83512 0.48746
 C954 C 0.72605 0.84716 0.49471
 C955 C 0.13681 0.29931 -0.04085
 N956 N 0.16008 0.29575 -0.05395
 N957 N 0.18265 0.30608 -0.04433
 C958 C 0.18263 0.32029 -0.02130
 N959 N 0.15937 0.32377 -0.00814
 N960 N 0.13680 0.31344 -0.01777
 C961 C 0.11222 0.29024 -0.05245
 C962 C 0.09158 0.28357 -0.06289
 C963 C 0.20642 0.33343 -0.01221
 C964 C 0.22603 0.34548 -0.00509
 C965 C 0.35827 0.29404 0.04536
 N966 N 0.35864 0.30762 0.02205
 N967 N 0.33649 0.31872 0.01261
 C968 C 0.31330 0.31659 0.02620
 N969 N 0.31291 0.30292 0.04945
 N970 N 0.33505 0.29181 0.05889
 C971 C 0.38259 0.28462 0.05697
 C972 C 0.40306 0.27792 0.06757
 C973 C 0.29022 0.33088 0.01748
 C974 C 0.27137 0.34403 0.01068
 C975 C 0.85782 0.79518 0.54564
 N976 N 0.83445 0.79280 0.55886
 N977 N 0.81242 0.80404 0.54931
 C978 C 0.81310 0.81802 0.52624
 N979 N 0.83645 0.82030 0.51296
 N980 N 0.85848 0.80905 0.52251
 C981 C 0.88200 0.78556 0.55739
 C982 C 0.90235 0.77869 0.56811
 C983 C 0.79013 0.83242 0.51742
 C984 C 0.77134 0.84564 0.51057
   
