data_POSCAR
  _audit_creation_date              2014-09-24
  _audit_creation_method            'ToBaCCo'
  _symmetry_space_group_name_H-M    'P1'
  _symmetry_Int_Tables_number       1
  _symmetry_cell_setting            triclinic
  loop_
  _symmetry_equiv_pos_as_xyz
 x,y,z
_cell_length_a 43.9658
_cell_length_b 36.6533
_cell_length_c 32.8326
_cell_angle_alpha 89.885700
_cell_angle_beta 88.877500
_cell_angle_gamma 89.702700
loop_
  _atom_site_label
  _atom_site_type_symbol
  _atom_site_fract_x
  _atom_site_fract_y
  _atom_site_fract_z
C1 C 1.25368 0.24365 0.25037
 C2 C 0.74429 -0.25605 0.24900
 C3 C 0.74776 0.24919 -0.24896
 C4 C 1.25429 -0.26467 -0.25419
 C5 C 0.25256 0.25417 0.74797
 C6 C 0.74829 0.75403 0.74801
 C7 C 0.74774 0.25286 0.24793
 C8 C 0.25547 0.75994 0.26494
 O9 O 1.04573 0.06571 0.06623
 O10 O 1.07965 0.02911 0.03121
 C11 C 1.07319 0.05568 0.05612
 O12 O 0.95952 -0.06574 0.07465
 O13 O 0.92619 -0.03193 0.03696
 C14 C 0.93214 -0.05668 0.06413
 O15 O 1.04471 -0.06351 0.07698
 O16 O 1.07889 -0.03339 0.03551
 C17 C 1.07232 -0.05571 0.06513
 O18 O 0.96155 0.07123 0.06242
 O19 O 0.92688 0.03390 0.03221
 C20 C 0.93392 0.06205 0.05415
 Zr21 Zr 1.00322 0.04549 0.04793
 O22 O 0.99939 0.04343 0.11233
 O23 O 1.00568 0.10293 0.05150
 Zr24 Zr 1.00229 -0.04563 0.05424
 O25 O 0.99851 -0.03985 0.11832
 O26 O 1.00500 -0.10302 0.06034
 O27 O 1.03030 -0.00011 0.05858
 O28 O 0.97571 0.00098 0.05890
 O29 O 0.96141 0.06116 -0.07480
 O30 O 0.92701 0.02909 -0.03565
 C31 C 0.93376 0.05309 -0.06355
 O32 O 1.04523 -0.07003 -0.07186
 O33 O 1.07927 -0.03648 -0.03562
 C34 C 1.07277 -0.06093 -0.06267
 O35 O 0.96024 -0.07197 -0.06581
 O36 O 0.92640 -0.03495 -0.03124
 C37 C 0.93277 -0.06168 -0.05598
 O38 O 1.04638 0.05612 -0.07946
 O39 O 1.07974 0.02515 -0.03897
 C40 C 1.07372 0.04744 -0.06857
 Zr41 Zr 1.00361 0.04025 -0.05495
 O42 O 1.00048 0.03559 -0.11903
 O43 O 1.00710 0.09769 -0.05988
 Zr44 Zr 1.00280 -0.05120 -0.04844
 O45 O 0.99955 -0.05508 -0.11253
 O46 O 1.00587 -0.10875 -0.04378
 Zr47 Zr 1.04867 -0.00355 -0.00117
 Zr48 Zr 0.95721 -0.00173 0.00036
 O49 O 0.97659 -0.00534 -0.05865
 O50 O 1.03058 -0.00639 -0.06014
 O51 O 0.97654 0.05076 -0.00362
 O52 O 1.02897 -0.05570 0.00282
 O53 O 1.02978 0.04925 -0.00453
 O54 O 0.97531 -0.05509 0.00378
 H55 H 0.96132 0.00274 0.08244
 H56 H 1.04242 -0.07745 0.00376
 H57 H 0.96300 -0.00630 -0.08234
 H58 H 1.04328 0.07075 -0.00664
 H59 H 0.99077 -0.11361 0.04070
 H60 H 0.98783 -0.11730 -0.02810
 H61 H 1.01585 -0.03983 -0.12471
 H62 H 1.01867 0.02216 -0.12911
 H63 H 0.99080 0.10848 -0.04244
 H64 H 1.00612 0.11207 0.02318
 H65 H 1.01969 0.03725 0.12297
 H66 H 1.01703 -0.02734 0.12756
 O67 O 1.04016 0.56915 0.56345
 O68 O 1.07537 0.53447 0.52835
 C69 C 1.06798 0.56010 0.55403
 O70 O 0.95747 0.43475 0.56684
 O71 O 0.92362 0.46806 0.52948
 C72 C 0.93007 0.44286 0.55586
 O73 O 1.04193 0.44085 0.57193
 O74 O 1.07615 0.47271 0.53225
 C75 C 1.06948 0.44961 0.56107
 O76 O 0.95567 0.57205 0.55720
 O77 O 0.92265 0.53352 0.52566
 C78 C 0.92846 0.56162 0.54823
 Zr79 Zr 0.99834 0.54832 0.54343
 O80 O 0.99353 0.54582 0.60772
 O81 O 0.99895 0.60583 0.54785
 Zr82 Zr 0.99964 0.45738 0.54871
 O83 O 0.99454 0.46333 0.61266
 O84 O 1.00394 0.40023 0.55598
 O85 O 1.02637 0.50371 0.55430
 O86 O 0.97180 0.50277 0.55323
 O87 O 0.95815 0.56530 0.42214
 O88 O 0.92390 0.53070 0.45870
 C89 C 0.93062 0.55668 0.43319
 O90 O 1.04503 0.43412 0.42532
 O91 O 1.07751 0.46943 0.46194
 C92 C 1.07212 0.44402 0.43562
 O93 O 0.96040 0.42866 0.42922
 O94 O 0.92504 0.46457 0.46241
 C95 C 0.93257 0.43732 0.43897
 O96 O 1.04304 0.56083 0.41670
 O97 O 1.07661 0.53097 0.45789
 C98 C 1.07042 0.55279 0.42796
 Zr99 Zr 1.00038 0.54388 0.44042
 O100 O 0.99740 0.53879 0.37636
 O101 O 1.00324 0.60129 0.43456
 Zr102 Zr 1.00179 0.45272 0.44568
 O103 O 0.99926 0.45308 0.38129
 O104 O 1.00616 0.39522 0.44527
 Zr105 Zr 1.04560 0.50139 0.49495
 Zr106 Zr 0.95430 0.49975 0.49416
 O107 O 0.97424 0.49752 0.43545
 O108 O 1.02868 0.49838 0.43536
 O109 O 0.97246 0.55294 0.49130
 O110 O 1.02707 0.44856 0.49785
 O111 O 1.02557 0.55354 0.49164
 O112 O 0.97395 0.44720 0.49738
 H113 H 0.95702 0.50364 0.57640
 H114 H 1.04070 0.42700 0.49925
 H115 H 0.96045 0.49634 0.41198
 H116 H 1.03880 0.57531 0.49006
 H117 H 0.99128 0.38874 0.53507
 H118 H 0.99258 0.38573 0.46712
 H119 H 1.01871 0.46275 0.37023
 H120 H 1.01597 0.52600 0.36643
 H121 H 0.98855 0.61202 0.45442
 H122 H 1.00245 0.61533 0.52000
 H123 H 1.01368 0.53983 0.61893
 H124 H 1.01317 0.47507 0.62270
 O125 O 0.55002 -0.04789 0.58399
 O126 O 0.52514 -0.09029 0.54561
 C127 C 0.54355 -0.08121 0.57434
 O128 O 0.43909 0.05318 0.56343
 O129 O 0.47159 0.09359 0.53169
 C130 C 0.44724 0.08587 0.55297
 O131 O 0.44467 -0.04672 0.57823
 O132 O 0.47262 -0.08994 0.54330
 C133 C 0.45225 -0.08020 0.57055
 O134 O 0.55313 0.05266 0.57618
 O135 O 0.52744 0.09312 0.53565
 C136 C 0.54695 0.08539 0.56384
 Zr137 Zr 0.53637 0.00197 0.55782
 O138 O 0.53232 0.00837 0.62181
 O139 O 0.58430 -0.00233 0.56140
 Zr140 Zr 0.46083 0.00262 0.55383
 O141 O 0.46199 0.01104 0.61765
 O142 O 0.41296 -0.00065 0.55921
 O143 O 0.49813 -0.03055 0.56530
 O144 O 0.49821 0.03514 0.56174
 O145 O 0.55991 0.04806 0.43555
 O146 O 0.52996 0.09091 0.46785
 C147 C 0.55248 0.08155 0.44372
 O148 O 0.45102 -0.05232 0.42982
 O149 O 0.47573 -0.09248 0.47171
 C150 C 0.45719 -0.08497 0.44240
 O151 O 0.44775 0.04822 0.42980
 O152 O 0.47434 0.09106 0.46512
 C153 C 0.45374 0.08168 0.43916
 O154 O 0.55675 -0.05255 0.43516
 O155 O 0.52858 -0.09268 0.47395
 C156 C 0.54927 -0.08526 0.44621
 Zr157 Zr 0.54093 -0.00153 0.45537
 O158 O 0.54247 0.00081 0.39088
 O159 O 0.58892 -0.00608 0.45669
 Zr160 Zr 0.46530 -0.00136 0.45118
 O161 O 0.47004 0.00095 0.38687
 O162 O 0.41743 -0.00512 0.44686
 Zr163 Zr 0.50064 -0.05490 0.50704
 Zr164 Zr 0.50093 0.05565 0.50191
 O165 O 0.50345 0.03070 0.44431
 O166 O 0.50343 -0.03482 0.44679
 O167 O 0.54491 0.03272 0.50546
 O168 O 0.45711 -0.03107 0.50377
 O169 O 0.54432 -0.03164 0.50831
 O170 O 0.45699 0.03277 0.50049
 H171 H 0.49679 0.05315 0.58419
 H172 H 0.43897 -0.04700 0.50368
 H173 H 0.50444 0.04666 0.41992
 H174 H 0.56238 -0.04783 0.50993
 H175 H 0.40516 -0.00051 0.53121
 H176 H 0.40833 0.01385 0.46478
 H177 H 0.48008 -0.02187 0.37760
 H178 H 0.53199 -0.02100 0.38051
 H179 H 0.59633 0.01303 0.47519
 H180 H 0.59324 0.01684 0.54371
 H181 H 0.52061 -0.01256 0.63278
 H182 H 0.46803 -0.01223 0.63057
 O183 O 0.53915 0.55656 0.08190
 O184 O 0.57238 0.52736 0.03812
 C185 C 0.56646 0.54874 0.06868
 O186 O 0.45480 0.42328 0.05733
 O187 O 0.42032 0.46428 0.03226
 C188 C 0.42720 0.43392 0.05040
 O189 O 0.53923 0.42880 0.06247
 O190 O 0.57273 0.46622 0.02827
 C191 C 0.56656 0.43924 0.05269
 O192 O 0.45396 0.56120 0.08101
 O193 O 0.41998 0.52973 0.04262
 C194 C 0.42643 0.55336 0.07042
 Zr195 Zr 0.49624 0.53968 0.06045
 O196 O 0.49343 0.52539 0.12296
 O197 O 0.49769 0.59512 0.07775
 Zr198 Zr 0.49650 0.44958 0.04533
 O199 O 0.49243 0.44534 0.10959
 O200 O 0.49999 0.39214 0.04233
 O201 O 0.52400 0.49358 0.05957
 O202 O 0.46930 0.49364 0.06127
 O203 O 0.45309 0.57839 -0.05293
 O204 O 0.41955 0.53838 -0.02299
 C205 C 0.42576 0.56806 -0.04297
 O206 O 0.53780 0.44883 -0.08429
 O207 O 0.57185 0.47526 -0.04137
 C208 C 0.56527 0.45590 -0.07303
 O209 O 0.45270 0.44439 -0.07574
 O210 O 0.41912 0.47443 -0.03306
 C211 C 0.42536 0.45184 -0.06242
 O212 O 0.53785 0.57403 -0.06258
 O213 O 0.57192 0.53635 -0.03105
 C214 C 0.56536 0.56356 -0.05467
 Zr215 Zr 0.49551 0.55352 -0.04178
 O216 O 0.49087 0.55962 -0.10552
 O217 O 0.49884 0.61081 -0.03537
 Zr218 Zr 0.49555 0.46318 -0.05685
 O219 O 0.49101 0.47352 -0.11992
 O220 O 0.49914 0.40654 -0.06866
 Zr221 Zr 0.54143 0.50134 -0.00016
 Zr222 Zr 0.45044 0.50150 0.00353
 O223 O 0.46861 0.50943 -0.05555
 O224 O 0.52287 0.50936 -0.05829
 O225 O 0.46914 0.55386 0.01154
 O226 O 0.52233 0.44939 -0.00798
 O227 O 0.52207 0.55339 0.00928
 O228 O 0.46934 0.44910 -0.00596
 H229 H 0.45491 0.49052 0.08462
 H230 H 0.53591 0.42800 -0.01210
 H231 H 0.45418 0.51273 -0.07810
 H232 H 0.53536 0.57497 0.01179
 H233 H 0.49581 0.38534 0.01389
 H234 H 0.48343 0.39419 -0.05171
 H235 H 0.50887 0.48786 -0.12910
 H236 H 0.50974 0.55027 -0.11880
 H237 H 0.48529 0.61792 -0.01228
 H238 H 0.50038 0.60936 0.05239
 H239 H 0.51400 0.51782 0.13145
 H240 H 0.51200 0.45298 0.12117
 C241 C 1.24649 0.17854 0.21952
 C242 C 1.22999 0.15400 0.19590
 C243 C 1.20389 0.16539 0.17534
 C244 C 1.19485 0.20216 0.17868
 C245 C 1.21130 0.22658 0.20207
 C246 C 1.23666 0.21508 0.22454
 C247 C 1.18572 0.13812 0.15266
 C248 C 1.16601 0.14761 0.12372
 C249 C 1.14352 0.12251 0.10598
 C250 C 1.11544 0.13735 0.09493
 C251 C 1.09290 0.11534 0.07896
 C252 C 1.09807 0.07793 0.07259
 C253 C 1.12653 0.06296 0.08234
 C254 C 1.14905 0.08504 0.09942
 H255 H 1.26704 0.16864 0.23338
 H256 H 1.23774 0.12596 0.19353
 H257 H 1.17457 0.21232 0.16437
 H258 H 1.20360 0.25467 0.20366
 H259 H 1.18777 0.10972 0.16141
 H260 H 1.16424 0.17587 0.11454
 H261 H 1.11067 0.16612 0.09938
 H262 H 1.07136 0.12776 0.07121
 H263 H 1.13109 0.03421 0.07749
 H264 H 1.17075 0.07295 0.10693
 C265 C 1.24329 0.67105 0.71546
 C266 C 1.22770 0.64881 0.68842
 C267 C 1.20803 0.66415 0.65999
 C268 C 1.20640 0.70230 0.65646
 C269 C 1.22196 0.72450 0.68338
 C270 C 1.23898 0.70931 0.71531
 C271 C 1.18851 0.63998 0.63577
 C272 C 1.16007 0.64984 0.62661
 C273 C 1.13763 0.62534 0.60802
 C274 C 1.10676 0.63304 0.61512
 C275 C 1.08442 0.61142 0.59814
 C276 C 1.09232 0.58161 0.57309
 C277 C 1.12331 0.57383 0.56573
 C278 C 1.14582 0.59548 0.58312
 H279 H 1.25858 0.65791 0.73631
 H280 H 1.23029 0.61946 0.69057
 H281 H 1.19277 0.71507 0.63325
 H282 H 1.21984 0.75382 0.68030
 H283 H 1.19634 0.61244 0.62975
 H284 H 1.15169 0.67623 0.63670
 H285 H 1.09983 0.65589 0.63411
 H286 H 1.06086 0.61849 0.60441
 H287 H 1.13015 0.55129 0.54627
 H288 H 1.16944 0.58923 0.57632
 C289 C 0.70353 0.20441 0.75064
 C290 C 0.67818 0.18873 0.73281
 C291 C 0.67143 0.19540 0.69184
 C292 C 0.69122 0.21775 0.66883
 C293 C 0.71664 0.23351 0.68670
 C294 C 0.72356 0.22696 0.72803
 C295 C 0.64338 0.17875 0.67536
 C296 C 0.63470 0.18013 0.63624
 C297 C 0.60828 0.15946 0.62031
 C298 C 0.59815 0.16660 0.58056
 C299 C 0.57615 0.14439 0.56261
 C300 C 0.56409 0.11453 0.58414
 C301 C 0.57282 0.10881 0.62457
 C302 C 0.59466 0.13067 0.64234
 H303 H 0.70704 0.19986 0.78281
 H304 H 0.66337 0.17181 0.75155
 H305 H 0.68690 0.22429 0.63739
 H306 H 0.72975 0.25235 0.66822
 H307 H 0.62943 0.16429 0.69737
 H308 H 0.64775 0.19581 0.61426
 H309 H 0.60818 0.18850 0.56273
 H310 H 0.57007 0.14913 0.53126
 H311 H 0.56388 0.08594 0.64193
 H312 H 0.60172 0.12313 0.67250
 C313 C 0.69758 0.73938 0.20313
 C314 C 0.67920 0.72007 0.17676
 C315 C 0.68856 0.68615 0.16136
 C316 C 0.71825 0.67388 0.16918
 C317 C 0.73684 0.69355 0.19533
 C318 C 0.72560 0.72474 0.21593
 C319 C 0.66609 0.66438 0.13894
 C320 C 0.66743 0.62801 0.13478
 C321 C 0.64152 0.60711 0.11893
 C322 C 0.64691 0.57615 0.09478
 C323 C 0.62254 0.55658 0.07905
 C324 C 0.59234 0.56718 0.08804
 C325 C 0.58707 0.59732 0.11364
 C326 C 0.61136 0.61710 0.12885
 H327 H 0.68922 0.76530 0.21455
 H328 H 0.65699 0.73109 0.16968
 H329 H 0.72712 0.64905 0.15565
 H330 H 0.75950 0.68334 0.20105
 H331 H 0.64604 0.67870 0.12852
 H332 H 0.68730 0.61283 0.14400
 H333 H 0.66997 0.56763 0.08730
 H334 H 0.62737 0.53337 0.05958
 H335 H 0.56413 0.60618 0.12131
 H336 H 0.60649 0.64010 0.14863
 C337 C 0.79687 -0.24593 0.21466
 C338 C 0.81779 -0.22516 0.19225
 C339 C 0.80997 -0.19065 0.17710
 C340 C 0.77989 -0.17813 0.18346
 C341 C 0.75880 -0.19916 0.20592
 C342 C 0.76743 -0.23246 0.22426
 C343 C 0.83424 -0.16949 0.15530
 C344 C 0.83147 -0.13530 0.14079
 C345 C 0.85749 -0.11528 0.12153
 C346 C 0.85185 -0.08787 0.09262
 C347 C 0.87594 -0.06866 0.07403
 C348 C 0.90628 -0.07617 0.08431
 C349 C 0.91180 -0.10305 0.11395
 C350 C 0.88780 -0.12222 0.13241
 H351 H 0.80403 -0.27277 0.22444
 H352 H 0.84040 -0.23627 0.18685
 H353 H 0.77233 -0.15233 0.17123
 H354 H 0.73571 -0.18909 0.20941
 H355 H 0.85597 -0.18319 0.15138
 H356 H 0.80971 -0.12147 0.14215
 H357 H 0.82875 -0.08159 0.08402
 H358 H 0.87077 -0.04807 0.05146
 H359 H 0.93478 -0.10938 0.12305
 H360 H 0.89315 -0.14203 0.15569
 C361 C 0.78625 0.25121 0.69145
 C362 C 0.80684 0.26930 0.66552
 C363 C 0.81151 0.30693 0.66936
 C364 C 0.79612 0.32588 0.70066
 C365 C 0.77581 0.30784 0.72674
 C366 C 0.76944 0.27034 0.72172
 C367 C 0.83441 0.32522 0.64286
 C368 C 0.83305 0.36090 0.63372
 C369 C 0.85783 0.38037 0.61173
 C370 C 0.85118 0.41247 0.59014
 C371 C 0.87449 0.43268 0.57135
 C372 C 0.90496 0.42146 0.57454
 C373 C 0.91153 0.38931 0.59618
 C374 C 0.88829 0.36902 0.61456
 H375 H 0.78327 0.22209 0.68786
 H376 H 0.81920 0.25384 0.64245
 H377 H 0.80056 0.35444 0.70615
 H378 H 0.76594 0.32354 0.75153
 H379 H 0.85278 0.30860 0.63043
 H380 H 0.81310 0.37663 0.64262
 H381 H 0.82790 0.42200 0.58800
 H382 H 0.86871 0.45737 0.55499
 H383 H 0.93474 0.37981 0.59921
 H384 H 0.89442 0.34512 0.63202
 C385 C 0.30345 -0.26837 0.70353
 C386 C 0.32713 -0.25352 0.68010
 C387 C 0.32773 -0.21615 0.67171
 C388 C 0.30311 -0.19423 0.68498
 C389 C 0.27908 -0.20920 0.70799
 C390 C 0.27952 -0.24632 0.71941
 C391 C 0.35418 -0.20081 0.64899
 C392 C 0.36510 -0.16777 0.65771
 C393 C 0.39150 -0.15028 0.63681
 C394 C 0.40333 -0.11889 0.65471
 C395 C 0.42499 -0.09794 0.63413
 C396 C 0.43544 -0.10773 0.59491
 C397 C 0.42566 -0.14072 0.57814
 C398 C 0.40359 -0.16179 0.59876
 H399 H 0.30410 -0.29732 0.71016
 H400 H 0.34545 -0.27115 0.66942
 H401 H 0.30222 -0.16554 0.67715
 H402 H 0.26024 -0.19152 0.71631
 H403 H 0.36590 -0.21811 0.62708
 H404 H 0.35433 -0.15256 0.68239
 H405 H 0.39483 -0.10958 0.68413
 H406 H 0.43252 -0.07292 0.64818
 H407 H 0.43358 -0.14900 0.54820
 H408 H 0.39511 -0.18582 0.58382
 C409 C 0.25634 0.30487 0.21009
 C410 C 0.27089 0.32795 0.18208
 C411 C 0.29656 0.31606 0.15982
 C412 C 0.30651 0.27978 0.16475
 C413 C 0.29193 0.25673 0.19271
 C414 C 0.26790 0.26955 0.21798
 C415 C 0.31378 0.34308 0.13493
 C416 C 0.33469 0.33386 0.10653
 C417 C 0.35686 0.36017 0.08941
 C418 C 0.38631 0.34747 0.08036
 C419 C 0.40896 0.37157 0.06763
 C420 C 0.40252 0.40890 0.06284
 C421 C 0.37265 0.42150 0.06994
 C422 C 0.34998 0.39735 0.08345
 H423 H 0.23612 0.31515 0.22548
 H424 H 0.26227 0.35546 0.17820
 H425 H 0.32628 0.26922 0.14859
 H426 H 0.30037 0.22909 0.19607
 H427 H 0.31052 0.37158 0.14262
 H428 H 0.33815 0.30553 0.09855
 H429 H 0.39208 0.31893 0.08443
 H430 H 0.43161 0.36088 0.06159
 H431 H 0.36702 0.45006 0.06591
 H432 H 0.32723 0.40778 0.08919
 C433 C 0.79092 0.24233 -0.19850
 C434 C 0.81229 0.22220 -0.17687
 C435 C 0.81324 0.18406 -0.17934
 C436 C 0.79255 0.16645 -0.20475
 C437 C 0.77124 0.18667 -0.22683
 C438 C 0.76941 0.22510 -0.22332
 C439 C 0.83755 0.16423 -0.15732
 C440 C 0.83614 0.12893 -0.14630
 C441 C 0.86129 0.11007 -0.12482
 C442 C 0.85476 0.08033 -0.09906
 C443 C 0.87810 0.06194 -0.07875
 C444 C 0.90862 0.07257 -0.08432
 C445 C 0.91511 0.10200 -0.11061
 C446 C 0.89183 0.12046 -0.13061
 H447 H 0.79124 0.27178 -0.19606
 H448 H 0.82836 0.23663 -0.15827
 H449 H 0.79348 0.13719 -0.20891
 H450 H 0.75698 0.17194 -0.24748
 H451 H 0.85700 0.18014 -0.14841
 H452 H 0.81558 0.11366 -0.15152
 H453 H 0.83148 0.07148 -0.09439
 H454 H 0.87226 0.03922 -0.05901
 H455 H 0.93832 0.11086 -0.11592
 H456 H 0.89798 0.14239 -0.15122
 C457 C 0.75177 0.68074 0.28419
 C458 C 0.76842 0.65745 0.30932
 C459 C 0.79362 0.67028 0.33049
 C460 C 0.80067 0.70768 0.32768
 C461 C 0.78408 0.73079 0.30260
 C462 C 0.76074 0.71733 0.27804
 C463 C 0.81290 0.64350 0.35260
 C464 C 0.83640 0.65298 0.37569
 C465 C 0.85947 0.62677 0.39004
 C466 C 0.88962 0.63870 0.39142
 C467 C 0.91256 0.61539 0.40435
 C468 C 0.90585 0.57970 0.41720
 C469 C 0.87553 0.56770 0.41652
 C470 C 0.85247 0.59098 0.40259
 H471 H 0.73203 0.66975 0.26955
 H472 H 0.76177 0.62910 0.31178
 H473 H 0.81942 0.71958 0.34352
 H474 H 0.79034 0.75932 0.30112
 H475 H 0.80894 0.61481 0.34704
 H476 H 0.84115 0.68133 0.38140
 H477 H 0.89552 0.66617 0.38206
 H478 H 0.93558 0.62574 0.40513
 H479 H 0.86970 0.54044 0.42666
 H480 H 0.82926 0.58130 0.40249
 C481 C 0.26945 0.19854 0.30569
 C482 C 0.29038 0.18327 0.33234
 C483 C 0.32033 0.19624 0.33371
 C484 C 0.32853 0.22591 0.30875
 C485 C 0.30751 0.24128 0.28213
 C486 C 0.27795 0.22665 0.27846
 C487 C 0.34238 0.17604 0.35918
 C488 C 0.37137 0.18578 0.36567
 C489 C 0.39320 0.15991 0.38433
 C490 C 0.41699 0.17230 0.40875
 C491 C 0.43732 0.14732 0.42646
 C492 C 0.43443 0.10968 0.41922
 C493 C 0.41125 0.09787 0.39341
 C494 C 0.39110 0.12248 0.37625
 H495 H 0.24650 0.18795 0.30585
 H496 H 0.28317 0.16080 0.35165
 H497 H 0.35117 0.23721 0.30908
 H498 H 0.31469 0.26496 0.26488
 H499 H 0.33443 0.15049 0.37206
 H500 H 0.37965 0.21234 0.35659
 H501 H 0.41948 0.20117 0.41470
 H502 H 0.45499 0.15736 0.44595
 H503 H 0.40821 0.06924 0.38657
 H504 H 0.37396 0.11199 0.35621
 C505 C 0.25049 0.69003 -0.19437
 C506 C 0.26326 0.67025 -0.16239
 C507 C 0.29323 0.67683 -0.15082
 C508 C 0.30986 0.70431 -0.17098
 C509 C 0.29731 0.72360 -0.20313
 C510 C 0.26807 0.71521 -0.21733
 C511 C 0.30803 0.65250 -0.12104
 C512 C 0.33085 0.66410 -0.09803
 C513 C 0.35348 0.63932 -0.07989
 C514 C 0.38335 0.65204 -0.07708
 C515 C 0.40662 0.62881 -0.06497
 C516 C 0.40047 0.59237 -0.05457
 C517 C 0.37027 0.57997 -0.05528
 C518 C 0.34692 0.60321 -0.06811
 H519 H 0.22720 0.68455 -0.20243
 H520 H 0.24986 0.64949 -0.14699
 H521 H 0.33314 0.71009 -0.16322
 H522 H 0.31101 0.74483 -0.21699
 H523 H 0.30208 0.62390 -0.12164
 H524 H 0.33594 0.69299 -0.09740
 H525 H 0.38899 0.67976 -0.08584
 H526 H 0.42953 0.63943 -0.06405
 H527 H 0.36484 0.55214 -0.04682
 H528 H 0.32395 0.59283 -0.06902
 C529 C 1.19935 -0.24475 -0.23418
 C530 C 1.17876 -0.22206 -0.21346
 C531 C 1.18871 -0.19212 -0.19092
 C532 C 1.22021 -0.18558 -0.18938
 C533 C 1.24093 -0.20838 -0.21032
 C534 C 1.23094 -0.23775 -0.23442
 C535 C 1.16512 -0.16961 -0.16936
 C536 C 1.17029 -0.13996 -0.14647
 C537 C 1.14524 -0.11892 -0.12599
 C538 C 1.15135 -0.09833 -0.09102
 C539 C 1.12803 -0.07907 -0.07053
 C540 C 1.09806 -0.07996 -0.08468
 C541 C 1.09218 -0.09966 -0.12034
 C542 C 1.11542 -0.11859 -0.14091
 H543 H 1.19011 -0.26845 -0.24891
 H544 H 1.15476 -0.22846 -0.21456
 H545 H 1.22918 -0.16338 -0.17179
 H546 H 1.26502 -0.20323 -0.20745
 H547 H 1.14192 -0.17881 -0.17219
 H548 H 1.19330 -0.13125 -0.14113
 H549 H 1.17415 -0.09765 -0.07914
 H550 H 1.13337 -0.06402 -0.04325
 H551 H 1.06951 -0.10031 -0.13266
 H552 H 1.10986 -0.13253 -0.16876
 C553 C 1.20275 0.25100 0.29099
 C554 C 1.18335 0.27101 0.31668
 C555 C 1.19272 0.30410 0.33356
 C556 C 1.22287 0.31545 0.32664
 C557 C 1.24235 0.29529 0.30104
 C558 C 1.23201 0.26404 0.28043
 C559 C 1.16993 0.32581 0.35709
 C560 C 1.17266 0.36138 0.36590
 C561 C 1.14696 0.38273 0.38352
 C562 C 1.15257 0.41194 0.40986
 C563 C 1.12836 0.43227 0.42669
 C564 C 1.09816 0.42403 0.41686
 C565 C 1.09278 0.39547 0.38946
 C566 C 1.11684 0.37515 0.37295
 H567 H 1.19447 0.22538 0.27948
 H568 H 1.16060 0.26086 0.32271
 H569 H 1.23162 0.33979 0.34062
 H570 H 1.26539 0.30487 0.29604
 H571 H 1.14888 0.31216 0.36531
 H572 H 1.19362 0.37574 0.35942
 H573 H 1.17566 0.41864 0.41789
 H574 H 1.13330 0.45422 0.44755
 H575 H 1.06989 0.38858 0.38077
 H576 H 1.11175 0.35383 0.35140
 C577 C 0.72923 -0.19898 0.29228
 C578 C 0.70836 -0.18035 0.31751
 C579 C 0.68133 -0.19712 0.33114
 C580 C 0.67628 -0.23361 0.32051
 C581 C 0.69707 -0.25214 0.29534
 C582 C 0.72300 -0.23453 0.27857
 C583 C 0.65816 -0.17476 0.35334
 C584 C 0.63385 -0.18812 0.37389
 C585 C 0.60971 -0.16376 0.39081
 C586 C 0.59390 -0.17289 0.42706
 C587 C 0.57256 -0.14851 0.44447
 C588 C 0.56674 -0.11481 0.42562
 C589 C 0.58091 -0.10725 0.38778
 C590 C 0.60200 -0.13136 0.37058
 H591 H 0.75006 -0.18526 0.28354
 H592 H 0.71320 -0.15247 0.32602
 H593 H 0.65587 -0.24775 0.33019
 H594 H 0.69225 -0.28018 0.28755
 H595 H 0.66115 -0.14546 0.35195
 H596 H 0.63165 -0.21711 0.37925
 H597 H 0.59891 -0.19821 0.44268
 H598 H 0.56171 -0.15525 0.47334
 H599 H 0.57635 -0.08196 0.37183
 H600 H 0.61252 -0.12430 0.34155
 C601 C 0.72606 0.27356 -0.17947
 C602 C 0.70779 0.29814 -0.15731
 C603 C 0.69060 0.32493 -0.17717
 C604 C 0.69134 0.32581 -0.21999
 C605 C 0.70967 0.30153 -0.24204
 C606 C 0.72827 0.27568 -0.22238
 C607 C 0.67114 0.34996 -0.15225
 C608 C 0.65701 0.37951 -0.16717
 C609 C 0.63508 0.40135 -0.14275
 C610 C 0.60909 0.41496 -0.16174
 C611 C 0.58670 0.43347 -0.13917
 C612 C 0.59034 0.43966 -0.09738
 C613 C 0.61711 0.42775 -0.07872
 C614 C 0.63924 0.40844 -0.10117
 H615 H 0.73789 0.25272 -0.16260
 H616 H 0.70691 0.29598 -0.12439
 H617 H 0.67754 0.34457 -0.23710
 H618 H 0.70960 0.30314 -0.27497
 H619 H 0.66769 0.34304 -0.12040
 H620 H 0.65952 0.38689 -0.19889
 H621 H 0.60559 0.41007 -0.19384
 H622 H 0.56632 0.44258 -0.15427
 H623 H 0.62036 0.43215 -0.04652
 H624 H 0.65946 0.39897 -0.08603
 C625 C 1.21789 0.19879 -0.25830
 C626 C 1.19863 0.17193 -0.24227
 C627 C 1.19389 0.16862 -0.20010
 C628 C 1.20837 0.19332 -0.17427
 C629 C 1.22753 0.22028 -0.19026
 C630 C 1.23343 0.22299 -0.23264
 C631 C 1.17160 0.14152 -0.18445
 C632 C 1.17130 0.12874 -0.14609
 C633 C 1.14677 0.10519 -0.12911
 C634 C 1.15238 0.08412 -0.09424
 C635 C 1.12898 0.06419 -0.07528
 C636 C 1.09934 0.06535 -0.09057
 C637 C 1.09391 0.08588 -0.12593
 C638 C 1.11726 0.10563 -0.14491
 H639 H 1.22058 0.20095 -0.29107
 H640 H 1.18709 0.15395 -0.26298
 H641 H 1.20396 0.19303 -0.14175
 H642 H 1.23659 0.23971 -0.16907
 H643 H 1.15500 0.13170 -0.20567
 H644 H 1.18963 0.13570 -0.12604
 H645 H 1.17483 0.08358 -0.08122
 H646 H 1.13390 0.04883 -0.04795
 H647 H 1.07135 0.08748 -0.13850
 H648 H 1.11167 0.12233 -0.17092
 C649 C 1.25155 0.71028 0.31839
 C650 C 1.23518 0.68369 0.34014
 C651 C 1.20425 0.67836 0.33307
 C652 C 1.18987 0.70049 0.30433
 C653 C 1.20602 0.72704 0.28275
 C654 C 1.23721 0.73404 0.29022
 C655 C 1.18698 0.65036 0.35640
 C656 C 1.16383 0.63230 0.33982
 C657 C 1.14179 0.60920 0.36271
 C658 C 1.11358 0.60293 0.34487
 C659 C 1.09079 0.58401 0.36587
 C660 C 1.09575 0.57031 0.40515
 C661 C 1.12445 0.57501 0.42253
 C662 C 1.14729 0.59446 0.40157
 H663 H 1.27572 0.71223 0.32360
 H664 H 1.24689 0.66666 0.36187
 H665 H 1.16589 0.69748 0.29833
 H666 H 1.19365 0.74120 0.25935
 H667 H 1.19298 0.64576 0.38778
 H668 H 1.15924 0.63673 0.30788
 H669 H 1.10877 0.61367 0.31488
 H670 H 1.06907 0.58048 0.35141
 H671 H 1.12892 0.56459 0.45274
 H672 H 1.16898 0.59793 0.41598
 C673 C 0.70929 0.20115 0.25814
 C674 C 0.68404 0.18564 0.27735
 C675 C 0.67076 0.20161 0.31211
 C676 C 0.68303 0.23420 0.32694
 C677 C 0.70832 0.25008 0.30728
 C678 C 0.72283 0.23305 0.27342
 C679 C 0.64416 0.18291 0.33083
 C680 C 0.63381 0.18734 0.36925
 C681 C 0.61178 0.16115 0.38754
 C682 C 0.59042 0.17227 0.41752
 C683 C 0.57026 0.14689 0.43535
 C684 C 0.57167 0.10992 0.42393
 C685 C 0.59323 0.09913 0.39408
 C686 C 0.61307 0.12418 0.37648
 H687 H 0.71751 0.18848 0.23029
 H688 H 0.67465 0.16098 0.26461
 H689 H 0.67273 0.24809 0.35279
 H690 H 0.71612 0.27619 0.31813
 H691 H 0.63381 0.16208 0.31236
 H692 H 0.64250 0.20879 0.38830
 H693 H 0.58931 0.20053 0.42703
 H694 H 0.55403 0.15602 0.45840
 H695 H 0.59527 0.07094 0.38453
 H696 H 0.63002 0.11414 0.35487
 C697 C 0.71007 0.70206 -0.24895
 C698 C 0.68955 0.67929 -0.22872
 C699 C 0.68563 0.68133 -0.18644
 C700 C 0.70217 0.70725 -0.16467
 C701 C 0.72261 0.73040 -0.18500
 C702 C 0.72771 0.72745 -0.22750
 C703 C 0.66217 0.65826 -0.16685
 C704 C 0.66277 0.64769 -0.12782
 C705 C 0.63785 0.62600 -0.10933
 C706 C 0.64414 0.60061 -0.07855
 C707 C 0.62070 0.57981 -0.06098
 C708 C 0.59053 0.58456 -0.07354
 C709 C 0.58431 0.61048 -0.10387
 C710 C 0.60765 0.63101 -0.12147
 H711 H 0.71213 0.69996 -0.28177
 H712 H 0.67646 0.66017 -0.24629
 H713 H 0.69845 0.71076 -0.13223
 H714 H 0.73351 0.75125 -0.16733
 H715 H 0.64409 0.64867 -0.18601
 H716 H 0.68228 0.65382 -0.10943
 H717 H 0.66723 0.59659 -0.06846
 H718 H 0.62615 0.56032 -0.03735
 H719 H 0.56133 0.61508 -0.11408
 H720 H 0.60188 0.65122 -0.14418
 C721 C 0.78923 -0.24417 -0.19787
 C722 C 0.81011 -0.22621 -0.17360
 C723 C 0.81336 -0.18825 -0.17586
 C724 C 0.79605 -0.16872 -0.20417
 C725 C 0.77527 -0.18675 -0.22873
 C726 C 0.77043 -0.22470 -0.22476
 C727 C 0.83664 -0.17059 -0.15055
 C728 C 0.83596 -0.13521 -0.13997
 C729 C 0.86058 -0.11779 -0.11667
 C730 C 0.85420 -0.08636 -0.09352
 C731 C 0.87738 -0.06847 -0.07281
 C732 C 0.90751 -0.08145 -0.07535
 C733 C 0.91376 -0.11299 -0.09844
 C734 C 0.89069 -0.13084 -0.11892
 H735 H 0.78755 -0.27356 -0.19544
 H736 H 0.82385 -0.24211 -0.15298
 H737 H 0.79921 -0.13971 -0.20849
 H738 H 0.76359 -0.17080 -0.25136
 H739 H 0.85457 -0.18799 -0.13922
 H740 H 0.81653 -0.11850 -0.14773
 H741 H 0.83125 -0.07552 -0.09162
 H742 H 0.87181 -0.04411 -0.05554
 H743 H 0.93670 -0.12372 -0.10132
 H744 H 0.89682 -0.15419 -0.13748
 C745 C 0.79109 0.29806 0.25218
 C746 C 0.81323 0.31730 0.27269
 C747 C 0.81711 0.31221 0.31446
 C748 C 0.79938 0.28599 0.33514
 C749 C 0.77745 0.26602 0.31431
 C750 C 0.77191 0.27303 0.27278
 C751 C 0.84103 0.33343 0.33450
 C752 C 0.83938 0.34445 0.37339
 C753 C 0.86333 0.36760 0.39097
 C754 C 0.85566 0.39377 0.42068
 C755 C 0.87794 0.41691 0.43615
 C756 C 0.90837 0.41387 0.42248
 C757 C 0.91602 0.38691 0.39357
 C758 C 0.89387 0.36402 0.37816
 H759 H 0.78861 0.30313 0.21993
 H760 H 0.82717 0.33666 0.25584
 H761 H 0.80298 0.28024 0.36704
 H762 H 0.76521 0.24500 0.33079
 H763 H 0.85969 0.34278 0.31520
 H764 H 0.81925 0.33860 0.39176
 H765 H 0.83232 0.39672 0.43140
 H766 H 0.87140 0.43696 0.45892
 H767 H 0.93926 0.38333 0.38272
 H768 H 0.90082 0.34327 0.35643
 C769 C 0.29437 -0.19084 0.26704
 C770 C 0.31650 -0.17093 0.28685
 C771 C 0.31990 -0.17429 0.32886
 C772 C 0.29861 -0.19469 0.35154
 C773 C 0.27551 -0.21368 0.33187
 C774 C 0.27460 -0.21490 0.28869
 C775 C 0.34587 -0.15591 0.34762
 C776 C 0.36329 -0.17178 0.37582
 C777 C 0.39145 -0.15442 0.39056
 C778 C 0.40116 -0.16115 0.43042
 C779 C 0.42521 -0.14113 0.44655
 C780 C 0.43980 -0.11423 0.42295
 C781 C 0.43216 -0.11032 0.38187
 C782 C 0.40845 -0.13040 0.36571
 H783 H 0.29396 -0.18931 0.23411
 H784 H 0.33209 -0.15432 0.26891
 H785 H 0.29980 -0.19588 0.38443
 H786 H 0.25914 -0.22791 0.35089
 H787 H 0.35220 -0.12966 0.33502
 H788 H 0.35667 -0.19789 0.38863
 H789 H 0.38897 -0.18026 0.44984
 H790 H 0.43073 -0.14459 0.47823
 H791 H 0.44341 -0.09009 0.36284
 H792 H 0.40291 -0.12607 0.33410
 C793 C 0.29080 0.25802 -0.19462
 C794 C 0.30953 0.27736 -0.16860
 C795 C 0.30846 0.31553 -0.16751
 C796 C 0.28838 0.33409 -0.19307
 C797 C 0.26979 0.31486 -0.21921
 C798 C 0.27009 0.27629 -0.22004
 C799 C 0.33106 0.33526 -0.14340
 C800 C 0.32746 0.36999 -0.13150
 C801 C 0.35253 0.39089 -0.11385
 C802 C 0.34606 0.41894 -0.08597
 C803 C 0.36963 0.43928 -0.06948
 C804 C 0.40002 0.43221 -0.08126
 C805 C 0.40628 0.40482 -0.11014
 C806 C 0.38282 0.38444 -0.12629
 H807 H 0.29285 0.22858 -0.19562
 H808 H 0.32546 0.26247 -0.14997
 H809 H 0.28812 0.36356 -0.19477
 H810 H 0.25646 0.33082 -0.24009
 H811 H 0.35179 0.32075 -0.13607
 H812 H 0.30575 0.38364 -0.13479
 H813 H 0.32279 0.42477 -0.07655
 H814 H 0.36407 0.46030 -0.04739
 H815 H 0.42938 0.39879 -0.12015
 H816 H 0.38847 0.36401 -0.14900
 C817 C 1.21427 -0.19294 0.26336
 C818 C 1.19398 -0.17007 0.24336
 C819 C 1.19462 -0.16717 0.20085
 C820 C 1.21702 -0.18679 0.17875
 C821 C 1.23750 -0.20985 0.19879
 C822 C 1.23551 -0.21516 0.24160
 C823 C 1.17049 -0.14493 0.18137
 C824 C 1.17139 -0.13304 0.14264
 C825 C 1.14584 -0.11243 0.12419
 C826 C 1.15180 -0.08886 0.09126
 C827 C 1.12810 -0.06987 0.07252
 C828 C 1.09777 -0.07438 0.08604
 C829 C 1.09183 -0.09814 0.11890
 C830 C 1.11548 -0.11700 0.13764
 H831 H 1.21269 -0.19440 0.29630
 H832 H 1.17736 -0.15487 0.26136
 H833 H 1.21857 -0.18511 0.14590
 H834 H 1.25480 -0.22318 0.18028
 H835 H 1.15116 -0.13749 0.20057
 H836 H 1.19165 -0.13734 0.12402
 H837 H 1.17489 -0.08510 0.07999
 H838 H 1.13354 -0.05202 0.04711
 H839 H 1.06877 -0.10264 0.12990
 H840 H 1.10971 -0.13585 0.16193
 C841 C 1.20607 0.29584 0.74979
 C842 C 1.18492 0.31899 0.73195
 C843 C 1.18540 0.32473 0.68979
 C844 C 1.20654 0.30530 0.66547
 C845 C 1.22776 0.28201 0.68334
 C846 C 1.22887 0.27820 0.72611
 C847 C 1.16233 0.34951 0.67249
 C848 C 1.16496 0.36535 0.63572
 C849 C 1.14061 0.38854 0.61858
 C850 C 1.14784 0.41377 0.58765
 C851 C 1.12498 0.43469 0.56961
 C852 C 1.09442 0.43047 0.58206
 C853 C 1.08736 0.40549 0.61332
 C854 C 1.11004 0.38458 0.63106
 H855 H 1.20525 0.29246 0.78257
 H856 H 1.16827 0.33276 0.75131
 H857 H 1.20642 0.30733 0.63260
 H858 H 1.24291 0.26687 0.66326
 H859 H 1.14287 0.35591 0.69190
 H860 H 1.18571 0.36204 0.61781
 H861 H 1.17119 0.41704 0.57720
 H862 H 1.13115 0.45351 0.54539
 H863 H 1.06407 0.40123 0.62353
 H864 H 1.10318 0.36453 0.65357
 C865 C 0.70750 -0.19616 0.75038
 C866 C 0.68318 -0.17701 0.73383
 C867 C 0.67437 -0.18349 0.69378
 C868 C 0.69107 -0.20852 0.66992
 C869 C 0.71579 -0.22727 0.68621
 C870 C 0.72487 -0.22111 0.72674
 C871 C 0.64805 -0.16312 0.67787
 C872 C 0.62908 -0.17668 0.65019
 C873 C 0.60329 -0.15534 0.63374
 C874 C 0.59252 -0.16366 0.59484
 C875 C 0.57095 -0.14112 0.57638
 C876 C 0.55997 -0.10989 0.59657
 C877 C 0.56884 -0.10332 0.63670
 C878 C 0.58998 -0.12600 0.65531
 H879 H 0.71243 -0.19202 0.78221
 H880 H 0.67054 -0.15791 0.75287
 H881 H 0.68508 -0.21377 0.63867
 H882 H 0.72680 -0.24770 0.66728
 H883 H 0.64420 -0.13615 0.69027
 H884 H 0.63321 -0.20366 0.63783
 H885 H 0.60197 -0.18650 0.57786
 H886 H 0.56442 -0.14672 0.54543
 H887 H 0.56025 -0.07972 0.65318
 H888 H 0.59629 -0.11980 0.68618
 C889 C 0.72279 0.31575 0.23776
 C890 C 0.70295 0.33919 0.21780
 C891 C 0.68877 0.32806 0.18225
 C892 C 0.69387 0.29262 0.16755
 C893 C 0.71308 0.26874 0.18814
 C894 C 0.72903 0.28029 0.22271
 C895 C 0.66641 0.35247 0.16340
 C896 C 0.66350 0.35528 0.12304
 C897 C 0.63904 0.37744 0.10533
 C898 C 0.64476 0.39883 0.07059
 C899 C 0.62142 0.41978 0.05374
 C900 C 0.59186 0.41860 0.07075
 C901 C 0.58622 0.39668 0.10523
 C902 C 0.60957 0.37648 0.12243
 H903 H 0.73247 0.32521 0.26586
 H904 H 0.69839 0.36600 0.23045
 H905 H 0.68190 0.28284 0.14123
 H906 H 0.71509 0.24095 0.17732
 H907 H 0.65229 0.36917 0.18346
 H908 H 0.67951 0.34155 0.10269
 H909 H 0.66737 0.39969 0.05691
 H910 H 0.62638 0.43644 0.02718
 H911 H 0.56370 0.39512 0.11908
 H912 H 0.60445 0.35957 0.14874
 C913 C 0.77807 0.19338 0.23998
 C914 C 0.79547 0.16823 0.21751
 C915 C 0.80367 0.17539 0.17687
 C916 C 0.79406 0.20827 0.15905
 C917 C 0.77642 0.23330 0.18140
 C918 C 0.76691 0.22565 0.22185
 C919 C 0.82272 0.14850 0.15414
 C920 C 0.84384 0.15876 0.12654
 C921 C 0.86565 0.13312 0.10679
 C922 C 0.89472 0.14603 0.09655
 C923 C 0.91649 0.12287 0.07901
 C924 C 0.90959 0.08628 0.07051
 C925 C 0.88009 0.07352 0.07924
 C926 C 0.85830 0.09671 0.09758
 H927 H 0.77288 0.18741 0.27167
 H928 H 0.80309 0.14341 0.23220
 H929 H 0.80000 0.21467 0.12770
 H930 H 0.77052 0.25876 0.16679
 H931 H 0.82114 0.12007 0.16298
 H932 H 0.84744 0.18760 0.12114
 H933 H 0.90086 0.17399 0.10300
 H934 H 0.93889 0.13371 0.07217
 H935 H 0.87413 0.04552 0.07279
 H936 H 0.83578 0.08624 0.10427
 C937 C 0.78496 0.75313 0.68643
 C938 C 0.80462 0.73534 0.65892
 C939 C 0.80981 0.69768 0.66211
 C940 C 0.79605 0.67844 0.69448
 C941 C 0.77659 0.69619 0.72206
 C942 C 0.76947 0.73360 0.71749
 C943 C 0.83173 0.67980 0.63370
 C944 C 0.83101 0.64400 0.62523
 C945 C 0.85550 0.62486 0.60205
 C946 C 0.84942 0.59109 0.58381
 C947 C 0.87286 0.57074 0.56515
 C948 C 0.90289 0.58366 0.56501
 C949 C 0.90878 0.61778 0.58259
 C950 C 0.88546 0.63807 0.60098
 H951 H 0.78155 0.78227 0.68328
 H952 H 0.81586 0.75105 0.63510
 H953 H 0.80106 0.64987 0.69953
 H954 H 0.76769 0.68041 0.74742
 H955 H 0.84891 0.69688 0.61945
 H956 H 0.81202 0.62775 0.63614
 H957 H 0.82657 0.58016 0.58460
 H958 H 0.86762 0.54454 0.55189
 H959 H 0.93163 0.62866 0.58291
 H960 H 0.89136 0.66335 0.61572
 C961 C 0.29636 0.26543 0.69706
 C962 C 0.32113 0.25410 0.67286
 C963 C 0.32830 0.21703 0.66940
 C964 C 0.31103 0.19155 0.69179
 C965 C 0.28660 0.20284 0.71651
 C966 C 0.27804 0.23999 0.71868
 C967 C 0.35447 0.20520 0.64363
 C968 C 0.35308 0.17462 0.62161
 C969 C 0.37889 0.15826 0.59844
 C970 C 0.37213 0.13147 0.56967
 C971 C 0.39513 0.10994 0.55256
 C972 C 0.42543 0.11478 0.56374
 C973 C 0.43282 0.14320 0.59020
 C974 C 0.40960 0.16487 0.60766
 H975 H 0.29149 0.29435 0.69919
 H976 H 0.33455 0.27430 0.65656
 H977 H 0.31700 0.16285 0.69117
 H978 H 0.27529 0.18221 0.73467
 H979 H 0.37449 0.22225 0.64214
 H980 H 0.33164 0.16015 0.62090
 H981 H 0.34876 0.12584 0.56200
 H982 H 0.38908 0.08803 0.53216
 H983 H 0.45609 0.14689 0.59953
 H984 H 0.41562 0.18491 0.63021
 C985 C 0.30605 0.72895 0.24901
 C986 C 0.32320 0.70216 0.22943
 C987 C 0.31055 0.68029 0.19960
 C988 C 0.27999 0.68562 0.18945
 C989 C 0.26236 0.71235 0.20964
 C990 C 0.27509 0.73567 0.23933
 C991 C 0.33011 0.65125 0.18209
 C992 C 0.32921 0.63977 0.14346
 C993 C 0.35382 0.61641 0.12589
 C994 C 0.34773 0.59248 0.09381
 C995 C 0.37108 0.57115 0.07631
 C996 C 0.40107 0.57378 0.09032
 C997 C 0.40709 0.59798 0.12220
 C998 C 0.38389 0.61917 0.13952
 H999 H 0.31729 0.74293 0.27340
 H1000 H 0.34658 0.69805 0.23835
 H1001 H 0.26936 0.66819 0.16735
 H1002 H 0.23842 0.71426 0.20276
 H1003 H 0.34797 0.64116 0.20145
 H1004 H 0.31110 0.64877 0.12388
 H1005 H 0.32489 0.59032 0.08229
 H1006 H 0.36575 0.55314 0.05136
 H1007 H 0.42992 0.60115 0.13341
 H1008 H 0.38992 0.63850 0.16284
   
