data_POSCAR
  _audit_creation_date              2014-09-24
  _audit_creation_method            'ToBaCCo'
  _symmetry_space_group_name_H-M    'P1'
  _symmetry_Int_Tables_number       1
  _symmetry_cell_setting            triclinic
  loop_
  _symmetry_equiv_pos_as_xyz
 x,y,z
_cell_length_a 36.6374
_cell_length_b 35.7415
_cell_length_c 35.7412
_cell_angle_alpha 89.758200
_cell_angle_beta 89.487600
_cell_angle_gamma 89.481900
loop_
  _atom_site_label
  _atom_site_type_symbol
  _atom_site_fract_x
  _atom_site_fract_y
  _atom_site_fract_z
N1 N 0.18394 1.26601 0.16236
 N2 N 0.16190 1.26850 0.19146
 C3 C 0.13852 1.29730 0.18628
 C4 C 0.14681 1.31430 0.15235
 C5 C 0.17541 1.29317 0.13768
 H6 H 0.11642 1.30459 0.20522
 H7 H 0.18831 1.29661 0.11056
 Cu8 Cu 0.16452 1.23293 0.23261
 Cu9 Cu 0.22106 1.22689 0.15796
 Cu10 Cu 0.21943 1.15727 0.22545
 N11 N 0.15937 1.19028 0.26605
 N12 N 0.18101 1.16090 0.26323
 C13 C 0.17114 1.13539 0.28907
 C14 C 0.14169 1.14945 0.30930
 C15 C 0.13490 1.18448 0.29378
 H16 H 0.18400 1.10826 0.29264
 H17 H 0.11354 1.20411 0.30137
 N18 N 0.25605 1.15873 0.18482
 N19 N 0.25637 1.18497 0.15874
 C20 C 0.28361 1.17751 0.13427
 C21 C 0.30149 1.14523 0.14563
 C22 C 0.28314 1.13399 0.17772
 H23 H 0.28990 1.19402 0.10966
 H24 H 0.28844 1.10915 0.19417
 H25 H 0.18977 1.18890 0.18754
 H26 H 0.22611 1.21370 0.21402
 N27 N 0.80987 0.74199 0.16558
 N28 N 0.83088 0.73793 0.19495
 C29 C 0.85558 0.71061 0.18827
 C30 C 0.84968 0.69670 0.15272
 C31 C 0.82047 0.71735 0.13920
 H32 H 0.87652 0.70210 0.20770
 H33 H 0.80814 0.71474 0.11196
 Cu34 Cu 0.82481 0.76938 0.23870
 Cu35 Cu 0.77081 0.77931 0.16364
 Cu36 Cu 0.76704 0.84305 0.23625
 N37 N 0.82753 0.80951 0.27494
 N38 N 0.80487 0.83819 0.27398
 C39 C 0.81404 0.86262 0.30077
 C40 C 0.84403 0.84848 0.31970
 C41 C 0.85195 0.81467 0.30232
 H42 H 0.80074 0.88937 0.30540
 H43 H 0.87456 0.79590 0.30787
 N44 N 0.73153 0.84301 0.19515
 N45 N 0.73332 0.81908 0.16715
 C46 C 0.70678 0.82750 0.14261
 C47 C 0.68709 0.85790 0.15594
 C48 C 0.70373 0.86715 0.18923
 H49 H 0.70246 0.81321 0.11644
 H50 H 0.69704 0.89057 0.20709
 H51 H 0.79924 0.81609 0.19677
 H52 H 0.76316 0.78752 0.22045
 N53 N 0.80834 1.27093 -0.16126
 N54 N 0.83303 1.27144 -0.18814
 C55 C 0.85699 1.29887 -0.18140
 C56 C 0.84655 1.31682 -0.14872
 C57 C 0.81562 1.29815 -0.13661
 H58 H 0.88091 1.30469 -0.19833
 H59 H 0.80048 1.30279 -0.11093
 Cu60 Cu 0.83273 1.23498 -0.22819
 Cu61 Cu 0.77066 1.23291 -0.15838
 Cu62 Cu 0.77807 1.16011 -0.22176
 N63 N 0.84030 1.19142 -0.25960
 N64 N 0.81895 1.16217 -0.25702
 C65 C 0.83066 1.13597 -0.28135
 C66 C 0.86110 1.14944 -0.30020
 C67 C 0.86638 1.18488 -0.28557
 H68 H 0.81829 1.10886 -0.28490
 H69 H 0.88765 1.20445 -0.29269
 N70 N 0.73865 1.16351 -0.18394
 N71 N 0.73557 1.19153 -0.16016
 C72 C 0.70677 1.18545 -0.13733
 C73 C 0.69090 1.15196 -0.14721
 C74 C 0.71191 1.13881 -0.17677
 H75 H 0.69884 1.20343 -0.11441
 H76 H 0.70830 1.11266 -0.19133
 H77 H 0.80424 1.19314 -0.18319
 H78 H 0.77006 1.21685 -0.21403
 N79 N 0.19591 0.73121 -0.16984
 N80 N 0.17520 0.72754 -0.19940
 C81 C 0.15028 0.70084 -0.19269
 C82 C 0.15571 0.68693 -0.15690
 C83 C 0.18490 0.70690 -0.14329
 H84 H 0.12936 0.69294 -0.21217
 H85 H 0.19674 0.70429 -0.11579
 Cu86 Cu 0.18162 0.75906 -0.24322
 Cu87 Cu 0.23466 0.76813 -0.16757
 Cu88 Cu 0.23882 0.83203 -0.24051
 N89 N 0.17921 0.79913 -0.27992
 N90 N 0.20173 0.82749 -0.27891
 C91 C 0.19258 0.85225 -0.30576
 C92 C 0.16298 0.83844 -0.32510
 C93 C 0.15489 0.80489 -0.30740
 H94 H 0.20526 0.87922 -0.30960
 H95 H 0.13196 0.78694 -0.31294
 N96 N 0.27365 0.83170 -0.19881
 N97 N 0.27183 0.80761 -0.17078
 C98 C 0.29786 0.81584 -0.14584
 C99 C 0.31710 0.84644 -0.15883
 C100 C 0.30091 0.85581 -0.19248
 H101 H 0.30209 0.80134 -0.11960
 H102 H 0.30752 0.87925 -0.21038
 H103 H 0.20641 0.80532 -0.20121
 H104 H 0.24295 0.77642 -0.22428
 C105 C 0.55283 1.05138 -0.01514
 H106 H 0.55276 1.05174 0.01513
 C107 C 0.57800 1.07281 -0.03513
 H108 H 0.59735 1.08951 -0.01991
 C109 C 0.52895 1.02739 -0.07140
 H110 H 0.51051 1.00876 -0.08538
 C111 C 0.55365 1.04846 -0.09256
 H112 H 0.55370 1.04507 -0.12254
 N113 N 0.52877 1.02948 -0.03342
 C114 C 0.43876 1.01125 0.04465
 H115 H 0.43804 0.98100 0.04447
 C116 C 0.41292 1.03142 0.06537
 H117 H 0.39219 1.01636 0.08090
 C118 C 0.46572 1.06737 0.02303
 H119 H 0.48576 1.08127 0.00568
 C120 C 0.44044 1.08870 0.04349
 H121 H 0.44150 1.11876 0.04088
 Zn122 Zn 0.49765 0.99939 -0.00373
 N123 N 0.46475 1.02937 0.02440
 C124 C 0.52507 0.97493 0.06632
 N125 N 0.52793 0.97111 0.02858
 C126 C 0.55431 0.94915 0.01290
 C127 C 0.57936 0.93017 0.03541
 C128 C 0.54968 0.95658 0.08990
 C129 C 0.44432 0.98499 -0.05650
 C130 C 0.42096 0.96376 -0.07828
 C131 C 0.44884 0.90766 -0.05324
 C132 C 0.47167 0.93005 -0.03182
 N133 N 0.46923 0.96796 -0.03409
 H134 H 0.50415 0.99281 0.07828
 H135 H 0.55619 0.94686 -0.01723
 H136 H 0.60015 0.91279 0.02231
 H137 H 0.54603 0.96003 0.11965
 H138 H 0.44230 1.01521 -0.05701
 H139 H 0.40087 0.97796 -0.09540
 H140 H 0.45082 0.87772 -0.04973
 H141 H 0.49072 0.91703 -0.01279
 C142 C 0.41388 1.07076 0.06576
 C143 C 0.57844 1.07209 -0.07449
 C144 C 0.42323 0.92445 -0.07739
 C145 C 0.57806 0.93450 0.07452
 C146 C -0.01362 0.56292 1.04999
 H147 H 0.01588 0.56388 1.05057
 C148 C -0.03425 0.58816 1.07126
 H149 H -0.02032 0.60869 1.08799
 C150 C -0.06733 0.53605 1.02599
 H151 H -0.08013 0.51636 1.00753
 C152 C -0.08906 0.56075 1.04685
 H153 H -0.11825 0.55963 1.04334
 N154 N -0.03035 0.53717 1.02836
 C155 C 0.04873 0.44632 1.01491
 H156 H 0.05013 0.44468 0.98472
 C157 C 0.06880 0.42122 1.03671
 H158 H 0.08570 0.40029 1.02299
 C159 C 0.02404 0.47492 1.06924
 H160 H 0.00590 0.49536 1.08181
 C161 C 0.04358 0.45027 1.09216
 H162 H 0.03967 0.45261 1.12197
 Zn163 Zn -0.00034 0.50459 0.99971
 N164 N 0.02721 0.47278 1.03138
 C165 C 0.06771 0.53191 0.97271
 N166 N 0.03080 0.53469 0.96993
 C167 C 0.01497 0.56062 0.94724
 C168 C 0.03647 0.58438 0.92540
 C169 C 0.09028 0.55511 0.95133
 C170 C -0.05069 0.44815 0.98720
 C171 C -0.07204 0.42362 0.96672
 C172 C -0.04824 0.45101 0.90978
 C173 C -0.02721 0.47498 0.93141
 N174 N -0.02920 0.47350 0.96939
 H175 H 0.07980 0.51217 0.99201
 H176 H -0.01447 0.56297 0.94634
 H177 H 0.02326 0.60513 0.90786
 H178 H 0.11937 0.55275 0.95523
 H179 H -0.05102 0.44689 1.01745
 H180 H -0.08854 0.40330 0.98154
 H181 H -0.04511 0.45231 0.87975
 H182 H -0.00891 0.49433 0.91774
 C183 C 0.06674 0.42300 1.07600
 C184 C -0.07262 0.58688 1.07065
 C185 C -0.07175 0.42526 0.92738
 C186 C 0.07478 0.58145 0.92657
 C187 C 1.05355 -0.02091 0.55586
 H188 H 1.05446 0.00926 0.55801
 C189 C 1.07600 -0.04309 0.57834
 H190 H 1.09412 -0.02970 0.59785
 C191 C 1.02777 -0.07478 0.52877
 H192 H 1.00826 -0.08704 0.51007
 C193 C 1.04973 -0.09807 0.55077
 H194 H 1.04612 -0.12787 0.54843
 N195 N 1.03037 -0.03696 0.53134
 C196 C 1.01043 0.04825 0.44616
 H197 H 0.98090 0.04918 0.44664
 C198 C 1.02975 0.07038 0.42070
 H199 H 1.01474 0.08799 0.40139
 C200 C 1.06548 0.02235 0.46936
 H201 H 1.07928 0.00276 0.48758
 C202 C 1.08590 0.04399 0.44435
 H203 H 1.11514 0.03996 0.44364
 Zn204 Zn 1.00006 -0.00470 0.50294
 N205 N 1.02846 0.02525 0.47021
 C206 C 0.97676 0.06353 0.53633
 N207 N 0.97377 0.02566 0.53727
 C208 C 0.95335 0.00835 0.56401
 C209 C 0.93503 0.02927 0.59133
 C210 C 0.95893 0.08553 0.56313
 C211 C 0.98345 -0.05384 0.44542
 C212 C 0.96161 -0.07440 0.42143
 C213 C 0.90828 -0.05050 0.45386
 C214 C 0.93122 -0.03034 0.47727
 N215 N 0.96807 -0.03270 0.47294
 H216 H 0.99324 0.07684 0.51501
 H217 H 0.95145 -0.02184 0.56414
 H218 H 0.91838 0.01484 0.61186
 H219 H 0.96106 0.11558 0.56084
 H220 H 1.01282 -0.05451 0.44202
 H221 H 0.97446 -0.09077 0.39947
 H222 H 0.87921 -0.04707 0.45765
 H223 H 0.91946 -0.01236 0.49848
 C224 C 1.06815 0.06924 0.42005
 C225 C 1.07478 -0.08233 0.57575
 C226 C 0.92339 -0.07346 0.42564
 C227 C 0.93858 0.06845 0.59200
 C228 C 0.12651 0.34314 1.13378
 C229 C 0.14917 0.36721 1.10651
 C230 C 0.12935 0.39398 1.08841
 C231 C 0.08849 0.39458 1.09892
 C232 C 0.07554 0.35436 1.09217
 C233 C 0.09534 0.32762 1.11023
 C234 C 0.10817 0.37183 1.16005
 C235 C 0.08833 0.39867 1.14199
 H236 H 0.17850 0.36450 1.10267
 H237 H 0.14186 0.41376 1.06918
 H238 H 0.05240 0.34753 1.07477
 H239 H 0.08913 0.29805 1.10813
 H240 H 0.11182 0.37220 1.19016
 H241 H 0.07590 0.42147 1.15747
 C242 C -0.12948 0.66662 1.13188
 C243 C -0.15398 0.63483 1.11846
 C244 C -0.13596 0.60789 1.09856
 C245 C -0.09470 0.61522 1.09345
 C246 C -0.09261 0.65467 1.07633
 C247 C -0.11070 0.68140 1.09632
 C248 C -0.09897 0.64664 1.15381
 C249 C -0.08101 0.61973 1.13383
 H250 H -0.18274 0.63270 1.12563
 H251 H -0.14979 0.58272 1.09003
 H252 H -0.07810 0.66102 1.05049
 H253 H -0.11150 0.71053 1.08761
 H254 H -0.09253 0.65203 1.18282
 H255 H -0.05966 0.60248 1.14606
 C256 C -0.13256 0.34674 0.87129
 C257 C -0.15339 0.36645 0.90329
 C258 C -0.13357 0.39298 0.92098
 C259 C -0.09443 0.39744 0.90552
 C260 C -0.07771 0.35789 0.90700
 C261 C -0.09752 0.33153 0.88918
 C262 C -0.11997 0.37882 0.84566
 C263 C -0.10016 0.40540 0.86342
 H264 H -0.18177 0.36149 0.91044
 H265 H -0.14524 0.41029 0.94300
 H266 H -0.05219 0.35122 0.92085
 H267 H -0.08900 0.30239 0.88792
 H268 H -0.12754 0.38140 0.81646
 H269 H -0.09198 0.43072 0.84898
 C270 C 0.13408 0.65792 0.86430
 C271 C 0.15780 0.62556 0.87909
 C272 C 0.13899 0.59965 0.89937
 C273 C 0.09777 0.60850 0.90342
 C274 C 0.09599 0.64833 0.91940
 C275 C 0.11486 0.67403 0.89905
 C276 C 0.10369 0.63857 0.84229
 C277 C 0.08492 0.61269 0.86265
 H278 H 0.18665 0.62231 0.87256
 H279 H 0.15226 0.57419 0.90888
 H280 H 0.08112 0.65569 0.94477
 H281 H 0.11596 0.70328 0.90698
 H282 H 0.09795 0.64357 0.81299
 H283 H 0.06356 0.59592 0.85046
 C284 C 1.12243 0.13022 0.33851
 C285 C 1.10467 0.09408 0.32477
 C286 C 1.08734 0.07434 0.35209
 C287 C 1.08899 0.09221 0.39103
 C288 C 1.13004 0.09815 0.39816
 C289 C 1.14739 0.11781 0.37069
 C290 C 1.09123 0.15208 0.35803
 C291 C 1.07398 0.13228 0.38552
 H292 H 1.10549 0.08482 0.29587
 H293 H 1.07354 0.04823 0.34647
 H294 H 1.14403 0.09039 0.42367
 H295 H 1.17589 0.12558 0.37275
 H296 H 1.08393 0.18095 0.35218
 H297 H 1.05249 0.14459 0.40270
 C298 C 1.14083 -0.14199 0.64838
 C299 C 1.10922 -0.12047 0.66708
 C300 C 1.08747 -0.10169 0.64265
 C301 C 1.09900 -0.10579 0.60139
 C302 C 1.13931 -0.09388 0.60008
 C303 C 1.16112 -0.11266 0.62457
 C304 C 1.12263 -0.16728 0.61939
 C305 C 1.10083 -0.14851 0.59482
 H306 H 1.10422 -0.12015 0.69707
 H307 H 1.06388 -0.08547 0.65186
 H308 H 1.15005 -0.07328 0.58058
 H309 H 1.19032 -0.10799 0.62561
 H310 H 1.12789 -0.19713 0.61703
 H311 H 1.08857 -0.16302 0.57164
 C312 C 0.86423 -0.13255 0.34787
 C313 C 0.89427 -0.15571 0.36743
 C314 C 0.91287 -0.13628 0.39369
 C315 C 0.90023 -0.09530 0.39820
 C316 C 0.90248 -0.07856 0.35858
 C317 C 0.88382 -0.09791 0.33242
 C318 C 0.84024 -0.11783 0.38022
 C319 C 0.85889 -0.09846 0.40654
 H320 H 0.89964 -0.18518 0.36265
 H321 H 0.93386 -0.14933 0.41071
 H322 H 0.91750 -0.05337 0.35170
 H323 H 0.88311 -0.08927 0.30326
 H324 H 0.81130 -0.12362 0.38312
 H325 H 0.84530 -0.08888 0.43180
 C326 C 0.88216 0.12976 0.67212
 C327 C 0.85953 0.11848 0.63805
 C328 C 0.87858 0.09850 0.61198
 C329 C 0.91877 0.09145 0.62187
 C330 C 0.93435 0.13066 0.62948
 C331 C 0.91517 0.15071 0.65543
 C332 C 0.89849 0.09289 0.68703
 C333 C 0.91772 0.07303 0.66097
 H334 H 0.83093 0.12578 0.63456
 H335 H 0.86619 0.08877 0.58636
 H336 H 0.95970 0.14108 0.61775
 H337 H 0.92428 0.17799 0.66430
 H338 H 0.89630 0.08381 0.71599
 H339 H 0.93216 0.04737 0.66810
 C340 C 0.33233 1.12558 0.12527
 C341 C 0.36367 1.15166 0.11394
 C342 C 0.39118 1.13437 0.09456
 C343 C 0.38486 1.09221 0.08796
 C344 C 0.37859 1.07646 0.12768
 C345 C 0.35113 1.09368 0.14707
 C346 C 0.32003 1.10773 0.08859
 C347 C 0.34734 1.09035 0.06920
 H348 H 0.36497 1.18086 0.12203
 H349 H 0.41591 1.14921 0.08732
 H350 H 0.39529 1.05453 0.14009
 H351 H 0.34482 1.08620 0.17582
 H352 H 0.29210 1.10867 0.07869
 H353 H 0.34269 1.07657 0.04267
 C354 C 0.65993 1.13168 -0.12812
 C355 C 0.63051 1.11833 -0.15520
 C356 C 0.60299 1.09891 -0.13837
 C357 C 0.60741 1.09430 -0.09562
 C358 C 0.64556 1.07676 -0.09083
 C359 C 0.67285 1.09620 -0.10773
 C360 C 0.63860 1.15424 -0.09839
 C361 C 0.61115 1.13479 -0.08162
 H362 H 0.63040 1.12511 -0.18484
 H363 H 0.57941 1.09031 -0.15412
 H364 H 0.65063 1.05098 -0.07549
 H365 H 0.70118 1.08708 -0.10668
 H366 H 0.64332 1.18341 -0.09201
 H367 H 0.59289 1.14755 -0.06118
 C368 C 0.34645 0.86697 -0.13813
 C369 C 0.37732 0.84135 -0.12403
 C370 C 0.40335 0.85947 -0.10421
 C371 C 0.39610 0.90193 -0.09999
 C372 C 0.39220 0.91579 -0.14065
 C373 C 0.36622 0.89773 -0.16050
 C374 C 0.33161 0.88662 -0.10303
 C375 C 0.35741 0.90480 -0.08320
 H376 H 0.37945 0.81178 -0.13059
 H377 H 0.42773 0.84489 -0.09502
 H378 H 0.40933 0.93714 -0.15322
 H379 H 0.36161 0.90390 -0.18981
 H380 H 0.30311 0.88626 -0.09446
 H381 H 0.35090 0.91982 -0.05762
 C382 C 0.65732 0.87889 0.13564
 C383 C 0.67221 0.90230 0.10293
 C384 C 0.64605 0.92129 0.08367
 C385 C 0.60690 0.91496 0.09837
 C386 C 0.60238 0.87222 0.09875
 C387 C 0.62857 0.85343 0.11824
 C388 C 0.63510 0.90679 0.15952
 C389 C 0.60894 0.92579 0.14015
 H390 H 0.70103 0.90443 0.09600
 H391 H 0.65273 0.93978 0.06048
 H392 H 0.58007 0.85795 0.08521
 H393 H 0.62856 0.82319 0.12129
 H394 H 0.63965 0.91182 0.18900
 H395 H 0.59278 0.94743 0.15363
   
