data_POSCAR
  _audit_creation_date              2014-09-24
  _audit_creation_method            'ToBaCCo'
  _symmetry_space_group_name_H-M    'P1'
  _symmetry_Int_Tables_number       1
  _symmetry_cell_setting            triclinic
  loop_
  _symmetry_equiv_pos_as_xyz
 x,y,z
_cell_length_a 39.0315
_cell_length_b 39.0315
_cell_length_c 37.7089
_cell_angle_alpha 90.000000
_cell_angle_beta 90.000000
_cell_angle_gamma 90.000000
loop_
  _atom_site_label
  _atom_site_type_symbol
  _atom_site_fract_x
  _atom_site_fract_y
  _atom_site_fract_z
C1 C 0.31968 0.27368 0.21082
 H2 H 0.33266 0.25499 0.22718
 C3 C 0.34005 0.29635 0.18916
 H4 H 0.36767 0.29414 0.19009
 C5 C 0.26918 0.29950 0.19077
 H6 H 0.24153 0.30148 0.19080
 C7 C 0.28854 0.32271 0.16919
 H8 H 0.27453 0.34115 0.15344
 N9 N 0.28440 0.27524 0.21186
 C10 C 0.18777 0.27196 0.28071
 H11 H 0.17514 0.25117 0.26704
 C12 C 0.16733 0.29455 0.30227
 H13 H 0.13999 0.29025 0.30390
 C14 C 0.23738 0.30297 0.29438
 H15 H 0.26471 0.30694 0.29188
 C16 C 0.21784 0.32634 0.31553
 H17 H 0.23123 0.34724 0.32832
 Zn18 Zn 0.25347 0.24386 0.24485
 N19 N 0.22262 0.27607 0.27665
 C20 C 0.27950 0.21489 0.31426
 N21 N 0.28453 0.21344 0.27833
 C22 C 0.30976 0.19151 0.26651
 C23 C 0.33062 0.17148 0.29035
 C24 C 0.29944 0.19522 0.33872
 C25 C 0.22172 0.21048 0.17764
 C26 C 0.19875 0.18896 0.15760
 C27 C 0.17456 0.16959 0.21201
 C28 C 0.19816 0.19086 0.23098
 N29 N 0.22133 0.21173 0.21416
 H30 H 0.25957 0.23139 0.32453
 H31 H 0.31430 0.18947 0.23829
 H32 H 0.35042 0.15531 0.27927
 H33 H 0.29300 0.19751 0.36648
 H34 H 0.23974 0.22646 0.16344
 H35 H 0.19996 0.18962 0.12893
 H36 H 0.15683 0.15417 0.22723
 H37 H 0.19740 0.19081 0.25965
 C38 C 0.18184 0.32302 0.32016
 C39 C 0.32500 0.32226 0.16780
 C40 C 0.17379 0.16801 0.17434
 C41 C 0.32639 0.17296 0.32776
 C42 C 0.78312 0.81316 0.22091
 H43 H 0.76688 0.82208 0.24219
 C44 C 0.80248 0.83789 0.20145
 H45 H 0.79962 0.86399 0.21022
 C46 C 0.80693 0.76875 0.18761
 H47 H 0.80929 0.74175 0.18164
 C48 C 0.82703 0.79295 0.16731
 H49 H 0.84343 0.78293 0.14668
 N50 N 0.78477 0.77873 0.21414
 C51 C 0.72007 0.77431 0.31369
 H52 H 0.73575 0.75568 0.32739
 C53 C 0.69836 0.79656 0.33428
 H54 H 0.69862 0.79437 0.36289
 C55 C 0.70130 0.79994 0.26100
 H56 H 0.70185 0.80189 0.23239
 C57 C 0.67993 0.82293 0.28055
 H58 H 0.66504 0.84158 0.26594
 Zn59 Zn 0.75421 0.74549 0.24567
 N60 N 0.72187 0.77617 0.27726
 C61 C 0.78828 0.68000 0.27589
 N62 N 0.78607 0.71515 0.27845
 C63 C 0.80585 0.73050 0.30396
 C64 C 0.82725 0.71133 0.32758
 C65 C 0.80983 0.65983 0.29889
 C66 C 0.72325 0.71157 0.17795
 C67 C 0.70020 0.68990 0.15816
 C68 C 0.67550 0.67174 0.21277
 C69 C 0.69899 0.69331 0.23147
 N70 N 0.72260 0.71347 0.21444
 H71 H 0.77313 0.66700 0.25599
 H72 H 0.80497 0.75810 0.30658
 H73 H 0.84195 0.72538 0.34707
 H74 H 0.80998 0.63226 0.29583
 H75 H 0.74151 0.72713 0.16359
 H76 H 0.70164 0.69001 0.12950
 H77 H 0.65768 0.65668 0.22826
 H78 H 0.69787 0.69403 0.26013
 C79 C 0.67784 0.82218 0.31814
 C80 C 0.82524 0.82906 0.17312
 C81 C 0.67495 0.66943 0.17513
 C82 C 0.82988 0.67499 0.32611
 C83 C 0.82141 0.27451 0.71219
 H84 H 0.83476 0.25584 0.72822
 C85 C 0.84134 0.29742 0.69037
 H86 H 0.86898 0.29535 0.69088
 C87 C 0.77049 0.30014 0.69305
 H88 H 0.74284 0.30197 0.69349
 C89 C 0.78940 0.32353 0.67127
 H90 H 0.77502 0.34188 0.65577
 N91 N 0.78613 0.27581 0.71372
 C92 C 0.69084 0.26956 0.78466
 H93 H 0.67864 0.24784 0.77209
 C94 C 0.67026 0.29220 0.80602
 H95 H 0.64312 0.28708 0.80863
 C96 C 0.73976 0.30261 0.79571
 H97 H 0.76682 0.30746 0.79208
 C98 C 0.72007 0.32596 0.81670
 H99 H 0.73316 0.34762 0.82841
 Zn100 Zn 0.75578 0.24348 0.74635
 N101 N 0.72537 0.27476 0.77931
 C102 C 0.78563 0.20941 0.81390
 N103 N 0.78781 0.21157 0.77748
 C104 C 0.81237 0.19175 0.76144
 C105 C 0.83552 0.17061 0.78118
 C106 C 0.80808 0.18797 0.83466
 C107 C 0.69768 0.22877 0.69517
 C108 C 0.67385 0.20983 0.67399
 C109 C 0.70200 0.15811 0.69055
 C110 C 0.72527 0.17805 0.71190
 N111 N 0.72311 0.21321 0.71441
 H112 H 0.76648 0.22457 0.82748
 H113 H 0.81465 0.19249 0.73286
 H114 H 0.85457 0.15617 0.76664
 H115 H 0.80547 0.18795 0.86323
 H116 H 0.69522 0.25635 0.69643
 H117 H 0.65448 0.22407 0.65972
 H118 H 0.70476 0.13052 0.69017
 H119 H 0.74501 0.16487 0.72670
 C120 C 0.68430 0.32174 0.82241
 C121 C 0.82584 0.32330 0.66931
 C122 C 0.67493 0.17351 0.67109
 C123 C 0.83436 0.16806 0.81879
 C124 C 0.32168 0.77476 0.70812
 H125 H 0.33527 0.75535 0.72300
 C126 C 0.34113 0.79787 0.68597
 H127 H 0.36869 0.79506 0.68536
 C128 C 0.27050 0.80134 0.69155
 H129 H 0.24287 0.80312 0.69262
 C130 C 0.28886 0.82522 0.66999
 H131 H 0.27349 0.84320 0.65516
 N132 N 0.28653 0.77656 0.71117
 C133 C 0.20434 0.75932 0.80139
 H134 H 0.20465 0.73167 0.80342
 C135 C 0.18296 0.77842 0.82501
 H136 H 0.16784 0.76446 0.84425
 C137 C 0.22354 0.81006 0.77485
 H138 H 0.23950 0.82324 0.75585
 C139 C 0.20183 0.83013 0.79764
 H140 H 0.20229 0.85776 0.79529
 Zn141 Zn 0.25641 0.74433 0.74396
 N142 N 0.22496 0.77483 0.77669
 C143 C 0.28788 0.71933 0.81255
 N144 N 0.28798 0.71350 0.77670
 C145 C 0.30889 0.68750 0.76472
 C146 C 0.32908 0.66656 0.78837
 C147 C 0.30765 0.69928 0.83680
 C148 C 0.19851 0.72905 0.69303
 C149 C 0.17459 0.71002 0.67205
 C150 C 0.20251 0.65832 0.68912
 C151 C 0.22589 0.67836 0.71025
 N152 N 0.22392 0.71356 0.71237
 H153 H 0.27237 0.73995 0.82297
 H154 H 0.30990 0.68230 0.73657
 H155 H 0.34436 0.64607 0.77726
 H156 H 0.30636 0.70618 0.86452
 H157 H 0.19616 0.75664 0.69404
 H158 H 0.15527 0.72421 0.65766
 H159 H 0.20512 0.63072 0.68905
 H160 H 0.24550 0.66520 0.72523
 C161 C 0.18101 0.81475 0.82400
 C162 C 0.32535 0.82493 0.66654
 C163 C 0.17550 0.67367 0.66952
 C164 C 0.32873 0.67150 0.82572
 C165 C 0.02939 -0.03229 -0.02538
 C166 C 0.04795 -0.00693 -0.00005
 C167 C 0.02783 0.01563 0.01870
 C168 C -0.01168 0.00992 0.00942
 C169 C 0.00244 -0.05013 -0.00125
 C170 C -0.01942 -0.02955 0.01786
 C171 C 0.00742 -0.00863 -0.04931
 C172 C -0.01438 0.01404 -0.03252
 H173 H 0.07547 -0.00775 0.00317
 H174 H -0.02871 0.02813 0.02337
 H175 H 0.00125 -0.07773 0.00006
 H176 H 0.00997 -0.00878 -0.07785
 C177 C 0.02755 0.47356 0.47133
 C178 C 0.04691 0.49746 0.49770
 C179 C 0.02747 0.51775 0.51956
 C180 C -0.01216 0.51085 0.51274
 C181 C 0.00338 0.45220 0.49585
 C182 C -0.01807 0.47069 0.51788
 C183 C 0.00257 0.49829 0.45144
 C184 C -0.01858 0.51843 0.47190
 H185 H 0.07458 0.49878 0.49769
 H186 H -0.02863 0.52616 0.53047
 H187 H 0.00246 0.42456 0.49472
 H188 H 0.00265 0.50000 0.42282
 C189 C 0.52746 -0.02625 0.47183
 C190 C 0.54696 -0.00186 0.49754
 C191 C 0.52755 0.01817 0.51975
 C192 C 0.48788 0.01091 0.51348
 C193 C 0.50390 -0.04769 0.49684
 C194 C 0.48243 -0.02923 0.51880
 C195 C 0.50179 -0.00202 0.45214
 C196 C 0.48090 0.01822 0.47270
 H197 H 0.57461 -0.00017 0.49695
 H198 H 0.47130 0.02594 0.53141
 H199 H 0.50270 -0.07532 0.49550
 H200 H 0.50126 -0.00065 0.42350
 C201 C 0.52886 0.47268 -0.02816
 C202 C 0.54799 0.49677 -0.00187
 C203 C 0.52835 0.51686 0.01996
 C204 C 0.48876 0.50980 0.01300
 C205 C 0.50463 0.45125 -0.00365
 C206 C 0.48296 0.46967 0.01826
 C207 C 0.50390 0.49722 -0.04823
 C208 C 0.48241 0.51715 -0.02795
 H209 H 0.57566 0.49688 -0.00040
 H210 H 0.47250 0.52567 0.03039
 H211 H 0.50383 0.42361 -0.00473
 H212 H 0.50291 0.49755 -0.07689
 C213 C 0.11988 -0.11847 -0.12652
 C214 C 0.12248 -0.13054 -0.09241
 C215 C 0.14284 -0.15893 -0.08424
 C216 C 0.16111 -0.17577 -0.11174
 C217 C 0.16001 -0.16466 -0.14775
 C218 C 0.13883 -0.13486 -0.15486
 O219 O 0.09836 -0.09134 -0.12833
 C220 C 0.08736 -0.08621 -0.09470
 C221 C 0.10169 -0.10950 -0.07181
 C222 C 0.09450 -0.10873 -0.03550
 C223 C 0.07179 -0.08349 -0.02201
 C224 C 0.05512 -0.05890 -0.04407
 C225 C 0.06371 -0.06060 -0.08158
 H226 H 0.14455 -0.16815 -0.05723
 H227 H 0.17674 -0.19762 -0.10461
 H228 H 0.13668 -0.12514 -0.18163
 H229 H 0.10627 -0.12707 -0.01776
 H230 H 0.06693 -0.08329 0.00626
 H231 H 0.05268 -0.04262 -0.10011
 C232 C 0.11466 0.37218 0.38230
 C233 C 0.12479 0.40536 0.37629
 C234 C 0.15187 0.41299 0.35335
 C235 C 0.16944 0.38594 0.33597
 C236 C 0.16045 0.35079 0.34054
 C237 C 0.13188 0.34418 0.36433
 O238 O 0.08847 0.37092 0.40587
 C239 C 0.08198 0.40395 0.41467
 C240 C 0.10354 0.42586 0.39696
 C241 C 0.10135 0.46131 0.40146
 C242 C 0.07649 0.47504 0.42493
 C243 C 0.05351 0.45417 0.44495
 C244 C 0.05664 0.41742 0.43916
 H245 H 0.15952 0.43931 0.34895
 H246 H 0.19016 0.39270 0.31824
 H247 H 0.12372 0.31811 0.36918
 H248 H 0.11841 0.47823 0.38711
 H249 H 0.07534 0.50262 0.42777
 H250 H 0.04008 0.39980 0.45311
 C251 C 0.61654 -0.12798 0.38572
 C252 C 0.62046 -0.09521 0.37312
 C253 C 0.64178 -0.08807 0.34427
 C254 C 0.65967 -0.11524 0.32746
 C255 C 0.65724 -0.14992 0.33905
 C256 C 0.63509 -0.15602 0.36937
 O257 O 0.59426 -0.12886 0.41326
 C258 C 0.58413 -0.09599 0.41807
 C259 C 0.59976 -0.07455 0.39417
 C260 C 0.59372 -0.03927 0.39444
 C261 C 0.57086 -0.02527 0.41981
 C262 C 0.55288 -0.04575 0.44506
 C263 C 0.56025 -0.08228 0.44389
 H264 H 0.64450 -0.06208 0.33466
 H265 H 0.67603 -0.10893 0.30522
 H266 H 0.63191 -0.18177 0.37946
 H267 H 0.60653 -0.02271 0.37562
 H268 H 0.56698 0.00220 0.41964
 H269 H 0.54810 -0.09952 0.46245
 C270 C 0.61679 0.37106 -0.11593
 C271 C 0.62647 0.40426 -0.12255
 C272 C 0.65329 0.41187 -0.14582
 C273 C 0.67107 0.38477 -0.16287
 C274 C 0.66262 0.34957 -0.15758
 C275 C 0.63428 0.34298 -0.13349
 O276 O 0.59072 0.36985 -0.09222
 C277 C 0.58387 0.40293 -0.08394
 C278 C 0.60510 0.42482 -0.10209
 C279 C 0.60259 0.46032 -0.09808
 C280 C 0.57770 0.47410 -0.07467
 C281 C 0.55497 0.45326 -0.05433
 C282 C 0.55847 0.41647 -0.05958
 H283 H 0.66056 0.43820 -0.15074
 H284 H 0.69152 0.39156 -0.18093
 H285 H 0.62649 0.31690 -0.12812
 H286 H 0.61942 0.47721 -0.11272
 H287 H 0.57631 0.50170 -0.07214
 H288 H 0.54216 0.39887 -0.04532
 C289 C -0.11532 0.10754 -0.11258
 C290 C -0.08270 0.11104 -0.12567
 C291 C -0.07580 0.13175 -0.15507
 C292 C -0.10302 0.14952 -0.17192
 C293 C -0.13765 0.14754 -0.16001
 C294 C -0.14349 0.12596 -0.12908
 O295 O -0.11594 0.08560 -0.08466
 C296 C -0.08303 0.07528 -0.08011
 C297 C -0.06189 0.09044 -0.10464
 C298 C -0.02677 0.08362 -0.10539
 C299 C -0.01263 0.06013 -0.08072
 C300 C -0.03274 0.04265 -0.05481
 C301 C -0.06905 0.05108 -0.05455
 H302 H -0.04991 0.13410 -0.16507
 H303 H -0.09676 0.16546 -0.19450
 H304 H -0.16915 0.12307 -0.11867
 H305 H -0.01049 0.09587 -0.12485
 H306 H 0.01462 0.05513 -0.08227
 H307 H -0.08597 0.03846 -0.03595
 C308 C -0.11021 0.60631 0.37521
 C309 C -0.10954 0.62008 0.40873
 C310 C -0.12748 0.65013 0.41669
 C311 C -0.14659 0.66684 0.38965
 C312 C -0.14860 0.65424 0.35414
 C313 C -0.12987 0.62272 0.34732
 O314 O -0.09084 0.57759 0.37341
 C315 C -0.07786 0.57325 0.40642
 C316 C -0.08873 0.59858 0.42898
 C317 C -0.07851 0.59905 0.46460
 C318 C -0.05642 0.57291 0.47771
 C319 C -0.04378 0.54586 0.45590
 C320 C -0.05521 0.54659 0.41914
 H321 H -0.12680 0.66065 0.44323
 H322 H -0.16044 0.68979 0.39691
 H323 H -0.13010 0.61162 0.32104
 H324 H -0.08726 0.61923 0.48207
 H325 H -0.04877 0.57446 0.50517
 H326 H -0.04696 0.52692 0.40086
 C327 C 0.38902 0.10590 0.37611
 C328 C 0.38968 0.11959 0.40965
 C329 C 0.37179 0.14958 0.41767
 C330 C 0.35231 0.16609 0.39083
 C331 C 0.34955 0.15321 0.35540
 C332 C 0.36912 0.12222 0.34832
 O333 O 0.40845 0.07723 0.37427
 C334 C 0.42147 0.07288 0.40727
 C335 C 0.41057 0.09816 0.42986
 C336 C 0.42076 0.09863 0.46549
 C337 C 0.44288 0.07253 0.47859
 C338 C 0.45556 0.04552 0.45676
 C339 C 0.44412 0.04625 0.41999
 H340 H 0.37295 0.16035 0.44409
 H341 H 0.33975 0.18971 0.39814
 H342 H 0.36862 0.11086 0.32217
 H343 H 0.41195 0.11878 0.48297
 H344 H 0.45052 0.07406 0.50606
 H345 H 0.45238 0.02660 0.40169
 C346 C 0.39530 0.60865 -0.12558
 C347 C 0.38114 0.60775 -0.09225
 C348 C 0.35103 0.62556 -0.08452
 C349 C 0.33487 0.64521 -0.11145
 C350 C 0.34819 0.64814 -0.14667
 C351 C 0.37927 0.62864 -0.15349
 O352 O 0.42410 0.58938 -0.12709
 C353 C 0.42805 0.57621 -0.09410
 C354 C 0.40237 0.58683 -0.07186
 C355 C 0.40140 0.57643 -0.03632
 C356 C 0.42743 0.55442 -0.02291
 C357 C 0.45492 0.54208 -0.04432
 C358 C 0.45467 0.55370 -0.08105
 H359 H 0.33994 0.62426 -0.05824
 H360 H 0.31118 0.65783 -0.10443
 H361 H 0.39092 0.62933 -0.17950
 H362 H 0.38093 0.58502 -0.01912
 H363 H 0.42548 0.54670 0.00449
 H364 H 0.47469 0.54573 -0.09905
 C365 C -0.11019 -0.12423 0.10869
 C366 C -0.11939 -0.09072 0.11423
 C367 C -0.14584 -0.08237 0.13751
 C368 C -0.16341 -0.10880 0.15597
 C369 C -0.15534 -0.14460 0.15232
 C370 C -0.12778 -0.15175 0.12720
 O371 O -0.08415 -0.12638 0.08510
 C372 C -0.07702 -0.09364 0.07573
 C373 C -0.09795 -0.07086 0.09287
 C374 C -0.09493 -0.03547 0.08706
 C375 C -0.06973 -0.02283 0.06298
 C376 C -0.04698 -0.04487 0.04410
 C377 C -0.05133 -0.08137 0.05125
 H378 H -0.15314 -0.05587 0.14132
 H379 H -0.18423 -0.10024 0.17247
 H380 H -0.11965 -0.17780 0.12237
 H381 H -0.11165 -0.01779 0.10081
 H382 H -0.06824 0.00456 0.05925
 H383 H -0.03526 -0.10012 0.03837
 C384 C -0.10517 0.37339 0.60960
 C385 C -0.12061 0.40496 0.60762
 C386 C -0.15180 0.41132 0.62463
 C387 C -0.16797 0.38469 0.64415
 C388 C -0.15379 0.35108 0.64745
 C389 C -0.12110 0.34590 0.62966
 O390 O -0.07547 0.37296 0.59102
 C391 C -0.07221 0.40485 0.57720
 C392 C -0.09923 0.42535 0.58678
 C393 C -0.10119 0.45948 0.57549
 C394 C -0.07478 0.47329 0.55372
 C395 C -0.04585 0.45372 0.54255
 C396 C -0.04515 0.41835 0.55490
 H397 H -0.16358 0.43637 0.62298
 H398 H -0.19180 0.39081 0.65734
 H399 H -0.10870 0.32114 0.63090
 H400 H -0.12276 0.47527 0.58312
 H401 H -0.07762 0.49951 0.54501
 H402 H -0.02407 0.40181 0.54763
 C403 C 0.39486 -0.12552 0.61077
 C404 C 0.37730 -0.09581 0.60388
 C405 C 0.34407 -0.09087 0.61645
 C406 C 0.32793 -0.11705 0.63656
 C407 C 0.34422 -0.14895 0.64522
 C408 C 0.37917 -0.15240 0.63193
 O409 O 0.42626 -0.12494 0.59545
 C410 C 0.42840 -0.09420 0.57886
 C411 C 0.39906 -0.07539 0.58358
 C412 C 0.39567 -0.04250 0.56912
 C413 C 0.42304 -0.02822 0.54906
 C414 C 0.45413 -0.04627 0.54253
 C415 C 0.45635 -0.08036 0.55803
 H416 H 0.33065 -0.06718 0.61099
 H417 H 0.30269 -0.11106 0.64645
 H418 H 0.39354 -0.17559 0.63692
 H419 H 0.37233 -0.02802 0.57310
 H420 H 0.41938 -0.00299 0.53780
 H421 H 0.47922 -0.09558 0.55423
 C422 C 0.39467 0.37213 0.10871
 C423 C 0.37979 0.40400 0.10744
 C424 C 0.34877 0.41060 0.12469
 C425 C 0.33218 0.38390 0.14373
 C426 C 0.34581 0.35002 0.14636
 C427 C 0.37834 0.34457 0.12834
 O428 O 0.42425 0.37151 0.08992
 C429 C 0.42802 0.40359 0.07671
 C430 C 0.40145 0.42438 0.08690
 C431 C 0.40008 0.45877 0.07640
 C432 C 0.42662 0.47253 0.05478
 C433 C 0.45507 0.45266 0.04286
 C434 C 0.45519 0.41704 0.05447
 H435 H 0.33742 0.43587 0.12356
 H436 H 0.30846 0.39015 0.15709
 H437 H 0.39029 0.31958 0.12907
 H438 H 0.37889 0.47481 0.08457
 H439 H 0.42425 0.49899 0.04688
 H440 H 0.47590 0.40024 0.04669
 C441 C 0.12343 0.10822 0.10550
 C442 C 0.09151 0.10781 0.12090
 C443 C 0.08507 0.12590 0.15223
 C444 C 0.11197 0.14486 0.16848
 C445 C 0.14577 0.14666 0.15406
 C446 C 0.15106 0.12779 0.12132
 O447 O 0.12413 0.08864 0.07592
 C448 C 0.09207 0.07581 0.07263
 C449 C 0.07108 0.08696 0.09943
 C450 C 0.03659 0.07686 0.10097
 C451 C 0.02309 0.05455 0.07445
 C452 C 0.04349 0.04156 0.04613
 C453 C 0.07899 0.05296 0.04573
 H454 H 0.05985 0.12540 0.16413
 H455 H 0.10602 0.15874 0.19254
 H456 H 0.17603 0.12781 0.10887
 H457 H 0.02031 0.08585 0.12226
 H458 H -0.00343 0.04681 0.07666
 H459 H 0.09609 0.04448 0.02496
 C460 C 0.12475 0.60509 0.61041
 C461 C 0.09256 0.61934 0.61076
 C462 C 0.08600 0.64971 0.62923
 C463 C 0.11309 0.66622 0.64778
 C464 C 0.14727 0.65312 0.64865
 C465 C 0.15265 0.62131 0.62945
 O466 O 0.12537 0.57615 0.59070
 C467 C 0.09299 0.57213 0.57854
 C468 C 0.07193 0.59789 0.59024
 C469 C 0.03718 0.59871 0.58085
 C470 C 0.02343 0.57252 0.55869
 C471 C 0.04374 0.54508 0.54521
 C472 C 0.07960 0.54543 0.55591
 H473 H 0.06051 0.66062 0.62940
 H474 H 0.10694 0.68943 0.66211
 H475 H 0.17787 0.60982 0.62882
 H476 H 0.02088 0.61922 0.59024
 H477 H -0.00331 0.57431 0.55162
 H478 H 0.09678 0.52546 0.54708
 C479 C 0.62454 0.10525 0.61122
 C480 C 0.59229 0.11936 0.61170
 C481 C 0.58558 0.14952 0.63047
 C482 C 0.61257 0.16598 0.64921
 C483 C 0.64681 0.15303 0.64998
 C484 C 0.65236 0.12142 0.63045
 O485 O 0.62530 0.07649 0.59122
 C486 C 0.59294 0.07244 0.57901
 C487 C 0.57176 0.09800 0.59095
 C488 C 0.53701 0.09875 0.58158
 C489 C 0.52337 0.07268 0.55920
 C490 C 0.54380 0.04545 0.54546
 C491 C 0.57966 0.04587 0.55612
 H492 H 0.56004 0.16030 0.63073
 H493 H 0.60630 0.18902 0.66377
 H494 H 0.67763 0.11005 0.62973
 H495 H 0.52062 0.11910 0.59117
 H496 H 0.49661 0.07440 0.55216
 H497 H 0.59690 0.02604 0.54709
 C498 C 0.62440 0.60958 0.10635
 C499 C 0.59300 0.60785 0.12275
 C500 C 0.58690 0.62516 0.15459
 C501 C 0.61361 0.64468 0.17038
 C502 C 0.64700 0.64768 0.15511
 C503 C 0.65191 0.62961 0.12181
 O504 O 0.62473 0.59075 0.07624
 C505 C 0.59297 0.57702 0.07368
 C506 C 0.57257 0.58685 0.10149
 C507 C 0.53853 0.57559 0.10406
 C508 C 0.52481 0.55353 0.07748
 C509 C 0.54449 0.54203 0.04793
 C510 C 0.57961 0.55453 0.04655
 H511 H 0.56202 0.62371 0.16718
 H512 H 0.60776 0.65805 0.19476
 H513 H 0.67651 0.63060 0.10863
 H514 H 0.52276 0.58349 0.12620
 H515 H 0.49867 0.54492 0.08062
 H516 H 0.59621 0.54725 0.02488
   
