data_POSCAR
  _audit_creation_date              2014-09-24
  _audit_creation_method            'ToBaCCo'
  _symmetry_space_group_name_H-M    'P1'
  _symmetry_Int_Tables_number       1
  _symmetry_cell_setting            triclinic
  loop_
  _symmetry_equiv_pos_as_xyz
 x,y,z
_cell_length_a 56.5657
_cell_length_b 56.8678
_cell_length_c 24.0031
_cell_angle_alpha 90.850000
_cell_angle_beta 89.484600
_cell_angle_gamma 120.035600
loop_
  _atom_site_label
  _atom_site_type_symbol
  _atom_site_fract_x
  _atom_site_fract_y
  _atom_site_fract_z
C1 C 0.27573 0.39306 0.46580
 C2 C 0.27602 0.39373 0.52287
 C3 C 0.26195 0.40684 0.53937
 N4 N 0.25244 0.41353 0.49451
 C5 C 0.26114 0.40538 0.44957
 C6 C 0.26201 0.41664 0.59384
 C7 C 0.24127 0.42234 0.61091
 C8 C 0.24288 0.43875 0.65578
 C9 C 0.21915 0.43992 0.65601
 C10 C 0.20363 0.42424 0.61120
 N11 N 0.21724 0.41357 0.58406
 C12 C 0.17796 0.42073 0.59497
 C13 C 0.16835 0.41291 0.53975
 C14 C 0.14145 0.40240 0.52295
 C15 C 0.14165 0.40254 0.46587
 C16 C 0.16854 0.41261 0.44981
 N17 N 0.18484 0.41867 0.49490
 C18 C 0.17845 0.42025 0.39516
 C19 C 0.20380 0.42331 0.37860
 C20 C 0.21845 0.43650 0.33132
 C21 C 0.24178 0.43450 0.33121
 C22 C 0.24057 0.42021 0.37848
 N23 N 0.21725 0.41318 0.40660
 C24 C 0.26026 0.41345 0.39490
 H25 H 0.28605 0.38549 0.43916
 H26 H 0.28657 0.38671 0.54931
 H27 H 0.21001 0.40053 0.44108
 H28 H 0.25979 0.44976 0.68412
 H29 H 0.21450 0.45196 0.68455
 H30 H 0.12372 0.39637 0.54922
 H31 H 0.12422 0.39675 0.43915
 H32 H 0.25793 0.44298 0.30041
 H33 H 0.20989 0.39997 0.55042
 H34 H 0.21316 0.44681 0.30057
 C35 C 0.51885 -0.16112 0.48759
 C36 C 0.52023 -0.16043 0.54458
 C37 C 0.52862 -0.17859 0.55958
 N38 N 0.53215 -0.19053 0.51353
 C39 C 0.52620 -0.17984 0.46953
 C40 C 0.53305 -0.18384 0.61498
 C41 C 0.53390 -0.20768 0.62808
 C42 C 0.54446 -0.21155 0.67687
 C43 C 0.53958 -0.23776 0.67526
 C44 C 0.52678 -0.24904 0.62497
 N45 N 0.52344 -0.23061 0.59632
 C46 C 0.51702 -0.27631 0.60864
 C47 C 0.51166 -0.28557 0.55282
 C48 C 0.50151 -0.31228 0.53577
 C49 C 0.50186 -0.31229 0.47858
 C50 C 0.51193 -0.28557 0.46238
 N51 N 0.51821 -0.26932 0.50809
 C52 C 0.51788 -0.27604 0.40674
 C53 C 0.52660 -0.24862 0.39289
 C54 C 0.53566 -0.23723 0.34061
 C55 C 0.53871 -0.21171 0.34262
 C56 C 0.53121 -0.20815 0.39573
 N57 N 0.52392 -0.23060 0.42608
 C58 C 0.52856 -0.18575 0.41308
 H59 H 0.51281 -0.14940 0.46238
 H60 H 0.51513 -0.14828 0.57182
 H61 H 0.51405 -0.23456 0.46437
 H62 H 0.55454 -0.19705 0.71043
 H63 H 0.54494 -0.24739 0.70745
 H64 H 0.49527 -0.32982 0.56180
 H65 H 0.49607 -0.32995 0.45230
 H66 H 0.54488 -0.19773 0.30824
 H67 H 0.51184 -0.23458 0.56035
 H68 H 0.53877 -0.24650 0.30375
 C69 C 1.29861 0.85135 0.46842
 C70 C 1.30098 0.84999 0.52468
 C71 C 1.27508 0.83185 0.54472
 N72 N 1.25691 0.82265 0.50232
 C73 C 1.27123 0.83469 0.45565
 C74 C 1.26784 0.82660 0.60175
 C75 C 1.24157 0.80607 0.61904
 C76 C 1.23049 0.80387 0.67184
 C77 C 1.20611 0.77977 0.67270
 C78 C 1.20329 0.76727 0.62113
 N79 N 1.22487 0.78364 0.58851
 C80 C 1.18195 0.74082 0.60608
 C81 C 1.17733 0.73188 0.54961
 C82 C 1.16289 0.70494 0.53198
 C83 C 1.16252 0.70511 0.47492
 C84 C 1.17688 0.73210 0.45945
 N85 N 1.18600 0.74848 0.50507
 C86 C 1.17995 0.74136 0.40420
 C87 C 1.19796 0.76854 0.38981
 C88 C 1.19601 0.78088 0.34217
 C89 C 1.21845 0.80659 0.34177
 C90 C 1.23386 0.80893 0.38848
 N91 N 1.22094 0.78568 0.41791
 C92 C 1.25971 0.83160 0.40192
 H93 H 1.31526 0.86344 0.44026
 H94 H 1.31973 0.86169 0.54774
 H95 H 1.22877 0.78044 0.45161
 H96 H 1.23906 0.81783 0.70671
 H97 H 1.19232 0.77218 0.70789
 H98 H 1.15387 0.68698 0.55753
 H99 H 1.15284 0.68736 0.44794
 H100 H 1.22295 0.82173 0.31035
 H101 H 1.22970 0.77839 0.55009
 H102 H 1.18002 0.77225 0.31110
 C103 C 0.84536 0.52833 0.51083
 C104 C 0.84916 0.53521 0.45571
 C105 C 0.82533 0.53386 0.43763
 N106 N 0.80704 0.52614 0.47990
 C107 C 0.81930 0.52307 0.52505
 C108 C 0.81992 0.53728 0.38180
 C109 C 0.79549 0.53626 0.36517
 C110 C 0.78693 0.53418 0.31042
 C111 C 0.76291 0.53464 0.31184
 C112 C 0.75754 0.53734 0.36736
 N113 N 0.77764 0.53862 0.39951
 C114 C 0.73585 0.54099 0.38625
 C115 C 0.72951 0.54169 0.44298
 C116 C 0.71389 0.55239 0.46348
 C117 C 0.71159 0.54805 0.51981
 C118 C 0.72483 0.53371 0.53164
 N119 N 0.73610 0.53020 0.48450
 C120 C 0.72578 0.52321 0.58449
 C121 C 0.74382 0.51299 0.59372
 C122 C 0.74072 0.49498 0.63528
 C123 C 0.76336 0.49206 0.63343
 C124 C 0.77948 0.50765 0.58949
 N125 N 0.76731 0.52028 0.56542
 C126 C 0.80614 0.51248 0.57679
 H127 H 0.85986 0.52638 0.53659
 H128 H 0.86714 0.53975 0.43146
 H129 H 0.77622 0.53575 0.53636
 H130 H 0.79697 0.53279 0.27300
 H131 H 0.75121 0.53389 0.27574
 H132 H 0.70550 0.56275 0.44054
 H133 H 0.70136 0.55488 0.54853
 H134 H 0.76740 0.48011 0.66227
 H135 H 0.78042 0.54374 0.44159
 H136 H 0.72406 0.48520 0.66470
 C137 C 0.48715 0.18589 0.49747
 C138 C 0.48264 0.18271 0.55379
 C139 C 0.46656 0.19403 0.56794
 N140 N 0.46178 0.20465 0.52221
 C141 C 0.47436 0.19968 0.47923
 C142 C 0.45574 0.19377 0.62174
 C143 C 0.44445 0.21062 0.63446
 C144 C 0.42561 0.20581 0.67651
 C145 C 0.42074 0.22719 0.67669
 C146 C 0.43683 0.24465 0.63497
 N147 N 0.45087 0.23416 0.60873
 C148 C 0.43940 0.27030 0.62396
 C149 C 0.44929 0.28317 0.57191
 C150 C 0.45948 0.31058 0.56167
 C151 C 0.46450 0.31413 0.50570
 C152 C 0.45824 0.28904 0.48376
 N153 N 0.44888 0.27010 0.52418
 C154 C 0.45941 0.28340 0.42678
 C155 C 0.45904 0.25959 0.40824
 C156 C 0.45572 0.25050 0.35340
 C157 C 0.45953 0.22843 0.35252
 C158 C 0.46531 0.22486 0.40676
 N159 N 0.46497 0.24390 0.44039
 C160 C 0.47314 0.20604 0.42313
 H161 H 0.49880 0.17913 0.47281
 H162 H 0.49051 0.17328 0.58109
 H163 H 0.47183 0.24803 0.48138
 H164 H 0.41619 0.18854 0.70397
 H165 H 0.40693 0.22963 0.70449
 H166 H 0.46307 0.32654 0.59133
 H167 H 0.47218 0.33313 0.48406
 H168 H 0.45885 0.21681 0.31583
 H169 H 0.46617 0.24397 0.57903
 H170 H 0.45164 0.25917 0.31748
 C171 C 0.70127 0.17129 0.53477
 C172 C 0.70027 0.16976 0.47779
 C173 C 0.72688 0.18538 0.45904
 N174 N 0.74421 0.19565 0.50286
 C175 C 0.72860 0.18703 0.54939
 C176 C 0.73481 0.18937 0.40231
 C177 C 0.76097 0.20962 0.38443
 C178 C 0.77078 0.21216 0.33037
 C179 C 0.79511 0.23632 0.32840
 C180 C 0.79943 0.24795 0.38120
 N181 N 0.77864 0.23150 0.41513
 C182 C 0.82070 0.27432 0.39529
 C183 C 0.82806 0.28361 0.45081
 C184 C 0.84642 0.31017 0.46658
 C185 C 0.84860 0.31036 0.52351
 C186 C 0.83147 0.28393 0.54057
 N187 N 0.81906 0.26759 0.49608
 C188 C 0.82809 0.27489 0.59608
 C189 C 0.80656 0.24909 0.61204
 C190 C 0.80551 0.23660 0.66190
 C191 C 0.78020 0.21367 0.66461
 C192 C 0.76645 0.21273 0.61628
 N193 N 0.78277 0.23422 0.58410
 C194 C 0.73885 0.19321 0.60476
 H195 H 0.68366 0.16209 0.56197
 H196 H 0.68188 0.15878 0.45322
 H197 H 0.77660 0.24023 0.54897
 H198 H 0.76106 0.19855 0.29538
 H199 H 0.80777 0.24474 0.29181
 H200 H 0.85708 0.32763 0.43994
 H201 H 0.86115 0.32801 0.54931
 H202 H 0.77262 0.19941 0.69859
 H203 H 0.77485 0.23681 0.45439
 H204 H 0.82118 0.24355 0.69355
 O205 O 0.98081 0.51085 -0.08667
 O206 O 1.03611 0.53888 0.09756
 O207 O 0.97171 0.50983 0.00975
 O208 O 1.06697 0.54713 -0.05653
 O209 O 0.98517 0.50800 0.09220
 O210 O 1.02943 0.54578 -0.08171
 O211 O 1.07056 0.54394 0.04486
 O212 O 0.94620 0.47244 -0.05861
 C213 C 0.95614 0.49217 -0.09493
 C214 C 1.06065 0.55265 0.08237
 C215 C 0.97199 0.51451 0.06057
 C216 C 1.05477 0.55888 -0.07540
 O217 O 1.04326 0.51174 -0.12514
 O218 O 0.99358 0.46566 0.08849
 O219 O 0.97630 0.45181 -0.04337
 O220 O 1.06047 0.49212 0.02974
 O221 O 1.04280 0.49778 0.10408
 O222 O 0.99556 0.47405 -0.11722
 O223 O 1.05373 0.49273 -0.06442
 O224 O 0.95891 0.46154 0.04372
 Co225 Co 1.01255 0.50964 -0.09376
 Co226 Co 1.01426 0.50244 0.08588
 Co227 Co 0.97633 0.48194 -0.01749
 Co228 Co 1.05928 0.51786 -0.01191
 O229 O 1.01716 0.50300 -0.00516
 C230 C 1.05281 0.49700 -0.11383
 C231 C 0.96868 0.45246 0.07837
 C232 C 0.98249 0.45169 -0.09309
 C233 C 1.05686 0.48937 0.08053
 O234 O 0.49986 0.48073 -0.11688
 O235 O 0.48483 0.51231 0.11676
 O236 O 0.49881 0.45517 0.05501
 O237 O 0.45169 0.48478 -0.04133
 O238 O 0.51103 0.48833 0.11582
 O239 O 0.47578 0.50585 -0.11086
 O240 O 0.45392 0.48878 0.05704
 O241 O 0.48746 0.45283 -0.04793
 C242 C 0.48536 0.45709 -0.09779
 C243 C 0.46098 0.49377 0.10629
 C244 C 0.50160 0.46346 0.10436
 C245 C 0.45335 0.48802 -0.09213
 O246 O 0.52166 0.55010 -0.07167
 O247 O 0.55438 0.53084 0.07681
 O248 O 0.53986 0.48736 -0.06784
 O249 O 0.48486 0.54353 0.05138
 O250 O 0.52683 0.55524 0.06698
 O251 O 0.54667 0.52680 -0.08460
 O252 O 0.48130 0.54044 -0.04917
 O253 O 0.54886 0.49389 0.03437
 Co254 Co 0.51039 0.51503 -0.08810
 Co255 Co 0.51784 0.52058 0.08472
 Co256 Co 0.51725 0.47560 -0.00663
 Co257 Co 0.47102 0.51382 0.00366
 O258 O 0.50442 0.50630 -0.00104
 C259 C 0.50442 0.55731 -0.06741
 C260 C 0.56318 0.51525 0.06303
 C261 C 0.55469 0.51028 -0.08813
 C262 C 0.50849 0.56124 0.06680
 O263 O 0.54660 0.03718 -0.06050
 O264 O 0.50198 -0.01824 0.11850
 O265 O 0.55027 0.04433 0.03699
 O266 O 0.48688 -0.04656 -0.03900
 O267 O 0.52887 0.03287 0.11500
 O268 O 0.52691 -0.01210 -0.05791
 O269 O 0.47359 -0.04999 0.05968
 O270 O 0.54794 0.07472 -0.03444
 C271 C 0.55665 0.06248 -0.06866
 C272 C 0.48944 -0.04260 0.10167
 C273 C 0.55096 0.04349 0.08866
 C274 C 0.51151 -0.03721 -0.05360
 O275 O 0.48379 -0.01951 -0.11196
 O276 O 0.48184 0.03226 0.09703
 O277 O 0.49619 0.05093 -0.02995
 O278 O 0.43792 -0.03334 0.03332
 O279 O 0.45737 -0.01727 0.11173
 O280 O 0.49868 0.02961 -0.10221
 O281 O 0.45174 -0.02624 -0.05894
 O282 O 0.51863 0.06453 0.06192
 Co283 Co 0.51230 0.00876 -0.07461
 Co284 Co 0.49317 0.00762 0.10110
 Co285 Co 0.52187 0.04556 0.00250
 Co286 Co 0.46545 -0.03546 -0.00108
 O287 O 0.49631 0.00512 0.01083
 C288 C 0.45923 -0.02738 -0.10623
 C289 C 0.49773 0.05702 0.09144
 C290 C 0.49113 0.04495 -0.08015
 C291 C 0.43615 -0.03034 0.08388
 C292 C 1.15684 0.44835 0.37679
 C293 C 1.14209 0.45624 0.34333
 C294 C 1.13399 0.44519 0.28987
 C295 C 1.14082 0.42595 0.26992
 C296 C 1.15537 0.41773 0.30382
 C297 C 1.16341 0.42884 0.35767
 N298 N 1.11879 0.45392 0.25735
 N299 N 1.11305 0.44755 0.20624
 C300 C 1.09778 0.45692 0.17557
 C301 C 1.09656 0.45431 0.11747
 C302 C 1.08304 0.46462 0.08642
 C303 C 1.07014 0.47738 0.11325
 C304 C 1.07075 0.47927 0.17170
 C305 C 1.08456 0.46927 0.20258
 H306 H 1.16304 0.45738 0.41794
 H307 H 1.13703 0.47114 0.35901
 H308 H 1.13470 0.41712 0.22863
 H309 H 1.16018 0.40262 0.28834
 H310 H 1.10661 0.44480 0.09616
 H311 H 1.08283 0.46280 0.04143
 H312 H 1.06100 0.48896 0.19357
 H313 H 1.08503 0.47137 0.24752
 C314 C 0.48913 0.68370 0.34969
 C315 C 0.48619 0.66570 0.30642
 C316 C 0.50899 0.66901 0.27651
 C317 C 0.53498 0.69077 0.29026
 C318 C 0.53796 0.70889 0.33339
 C319 C 0.51505 0.70556 0.36358
 N320 N 0.50519 0.64962 0.23357
 N321 N 0.52505 0.65002 0.20728
 C322 C 0.52088 0.62987 0.16580
 C323 C 0.54335 0.62811 0.14629
 C324 C 0.53959 0.60664 0.11115
 C325 C 0.51319 0.58672 0.09434
 C326 C 0.49084 0.58955 0.11108
 C327 C 0.49461 0.61082 0.14678
 H328 H 0.47112 0.68078 0.37195
 H329 H 0.46606 0.64900 0.29632
 H330 H 0.55294 0.69372 0.26786
 H331 H 0.55820 0.72540 0.34359
 H332 H 0.56372 0.64270 0.16047
 H333 H 0.55721 0.60501 0.09904
 H334 H 0.47025 0.57451 0.09907
 H335 H 0.47691 0.61184 0.16089
 C336 C 0.28826 -0.12062 0.37485
 C337 C 0.30628 -0.10125 0.33746
 C338 C 0.31087 -0.10915 0.28500
 C339 C 0.29619 -0.13671 0.26915
 C340 C 0.27831 -0.15622 0.30674
 C341 C 0.27477 -0.14855 0.36096
 N342 N 0.33251 -0.08936 0.25134
 N343 N 0.33665 -0.09443 0.20150
 C344 C 0.36010 -0.07555 0.17039
 C345 C 0.36226 -0.08125 0.11430
 C346 C 0.38653 -0.06545 0.08497
 C347 C 0.40922 -0.04391 0.11174
 C348 C 0.40658 -0.03743 0.16731
 C349 C 0.38218 -0.05303 0.19635
 H350 H 0.28540 -0.11382 0.41545
 H351 H 0.31741 -0.08007 0.35012
 H352 H 0.29957 -0.14332 0.22885
 H353 H 0.26869 -0.17744 0.29455
 H354 H 0.34546 -0.09861 0.09390
 H355 H 0.38798 -0.07100 0.04224
 H356 H 0.42370 -0.02091 0.18893
 H357 H 0.38106 -0.04826 0.23977
 C358 C 0.86539 0.56469 0.33479
 C359 C 0.88503 0.56710 0.29586
 C360 C 0.87948 0.54570 0.25879
 C361 C 0.85401 0.52168 0.26130
 C362 C 0.83466 0.51897 0.30120
 C363 C 0.84018 0.54048 0.33818
 N364 N 0.90060 0.54785 0.22212
 N365 N 0.89532 0.53307 0.17847
 C366 C 0.91640 0.53305 0.14490
 C367 C 0.90982 0.52050 0.09220
 C368 C 0.92888 0.51652 0.06209
 C369 C 0.95457 0.52444 0.08513
 C370 C 0.96160 0.53820 0.13676
 C371 C 0.94278 0.54271 0.16620
 H372 H 0.87003 0.58143 0.36316
 H373 H 0.90468 0.58561 0.29476
 H374 H 0.84946 0.50470 0.23371
 H375 H 0.81543 0.50005 0.30357
 H376 H 0.88951 0.51281 0.07546
 H377 H 0.92286 0.50557 0.02270
 H378 H 0.98126 0.54441 0.15544
 H379 H 0.94830 0.55228 0.20699
 C380 C 0.43804 0.29783 0.35374
 C381 C 0.43946 0.31689 0.31565
 C382 C 0.46364 0.34181 0.30960
 C383 C 0.48672 0.34717 0.34094
 C384 C 0.48551 0.32785 0.37792
 C385 C 0.46107 0.30322 0.38516
 N386 N 0.46464 0.36105 0.27039
 N387 N 0.48287 0.38606 0.27317
 C388 C 0.48521 0.40524 0.23233
 C389 C 0.50218 0.43303 0.24321
 C390 C 0.50661 0.45217 0.20246
 C391 C 0.49450 0.44367 0.14966
 C392 C 0.47705 0.41577 0.13924
 C393 C 0.47227 0.39672 0.18033
 H394 H 0.41903 0.27889 0.35881
 H395 H 0.42160 0.31241 0.29139
 H396 H 0.50574 0.36612 0.33631
 H397 H 0.50350 0.33224 0.40163
 H398 H 0.51237 0.43982 0.28307
 H399 H 0.52035 0.47349 0.21148
 H400 H 0.46746 0.40864 0.09891
 H401 H 0.45922 0.37534 0.17081
 C402 C 0.69316 0.17864 0.34770
 C403 C 0.67243 0.16230 0.31031
 C404 C 0.67266 0.14061 0.28253
 C405 C 0.69407 0.13542 0.29235
 C406 C 0.71454 0.15140 0.33103
 C407 C 0.71404 0.17297 0.35930
 N408 N 0.64975 0.12311 0.24828
 N409 N 0.65035 0.10781 0.20966
 C410 C 0.62577 0.08987 0.17995
 C411 C 0.62677 0.08341 0.12365
 C412 C 0.60250 0.06774 0.09349
 C413 C 0.57700 0.05770 0.11992
 C414 C 0.57630 0.06316 0.17707
 C415 C 0.60034 0.07924 0.20654
 H416 H 0.69253 0.19526 0.36893
 H417 H 0.65593 0.16637 0.30330
 H418 H 0.69442 0.11853 0.27176
 H419 H 0.73054 0.14678 0.33950
 H420 H 0.64626 0.09137 0.10264
 H421 H 0.60365 0.06388 0.04951
 H422 H 0.55705 0.05583 0.19882
 H423 H 0.59909 0.08361 0.25017
 C424 C 0.46348 0.18530 -0.28147
 C425 C 0.46497 0.16841 -0.24144
 C426 C 0.45840 0.14183 -0.25529
 C427 C 0.44957 0.13204 -0.30966
 C428 C 0.44812 0.14889 -0.34976
 C429 C 0.45563 0.17604 -0.33677
 N430 N 0.46202 0.12569 -0.21439
 N431 N 0.45812 0.10203 -0.22561
 C432 C 0.46302 0.08624 -0.18607
 C433 C 0.46206 0.06227 -0.20435
 C434 C 0.46994 0.04804 -0.16906
 C435 C 0.47865 0.05739 -0.11437
 C436 C 0.47804 0.08057 -0.09499
 C437 C 0.47045 0.09498 -0.13060
 H438 H 0.46969 0.20607 -0.26971
 H439 H 0.47192 0.17632 -0.19979
 H440 H 0.44405 0.11147 -0.32137
 H441 H 0.44086 0.14055 -0.39103
 H442 H 0.45625 0.05521 -0.24686
 H443 H 0.47005 0.03020 -0.18514
 H444 H 0.48466 0.08831 -0.05310
 H445 H 0.47115 0.11332 -0.11528
 C446 C 0.71754 0.52838 -0.31596
 C447 C 0.70017 0.52671 -0.27245
 C448 C 0.67318 0.51968 -0.28330
 C449 C 0.66341 0.51343 -0.33816
 C450 C 0.68046 0.51413 -0.38152
 C451 C 0.70805 0.52203 -0.37148
 N452 N 0.65591 0.51862 -0.23819
 N453 N 0.63716 0.52442 -0.24548
 C454 C 0.61872 0.52246 -0.20206
 C455 C 0.60571 0.53775 -0.20615
 C456 C 0.58609 0.53494 -0.16694
 C457 C 0.57841 0.51599 -0.12383
 C458 C 0.59190 0.50100 -0.11897
 C459 C 0.61219 0.50445 -0.15746
 H460 H 0.73866 0.53514 -0.30614
 H461 H 0.70796 0.53160 -0.23030
 H462 H 0.64238 0.50735 -0.34723
 H463 H 0.67174 0.50777 -0.42273
 H464 H 0.61051 0.55164 -0.24037
 H465 H 0.57603 0.54672 -0.17194
 H466 H 0.58641 0.48630 -0.08609
 H467 H 0.62191 0.49229 -0.15380
 C468 C 0.83698 0.29978 -0.31244
 C469 C 0.85468 0.31713 -0.27131
 C470 C 0.88295 0.32876 -0.27742
 C471 C 0.89344 0.32237 -0.32497
 C472 C 0.87567 0.30458 -0.36580
 C473 C 0.84726 0.29332 -0.36014
 N474 N 0.90033 0.34769 -0.23569
 N475 N 0.92607 0.36249 -0.24169
 C476 C 0.94251 0.38213 -0.19997
 C477 C 0.96813 0.40376 -0.21486
 C478 C 0.98243 0.42575 -0.17820
 C479 C 0.97152 0.42607 -0.12551
 C480 C 0.94698 0.40323 -0.10881
 C481 C 0.93245 0.38155 -0.14592
 H482 H 0.81520 0.29149 -0.30726
 H483 H 0.84636 0.32201 -0.23502
 H484 H 0.91524 0.33113 -0.33057
 H485 H 0.88406 0.29976 -0.40204
 H486 H 0.97618 0.40444 -0.25628
 H487 H 1.00128 0.44312 -0.19214
 H488 H 0.93798 0.40301 -0.06866
 H489 H 0.91281 0.36491 -0.13324
 C490 C 0.55356 -0.13678 -0.34952
 C491 C 0.55599 -0.11819 -0.30804
 C492 C 0.54144 -0.12717 -0.25810
 C493 C 0.52484 -0.15519 -0.24941
 C494 C 0.52249 -0.17387 -0.29071
 C495 C 0.53651 -0.16496 -0.34186
 N496 N 0.54257 -0.10743 -0.21868
 N497 N 0.52847 -0.11408 -0.17405
 C498 C 0.52823 -0.09422 -0.13686
 C499 C 0.50853 -0.10293 -0.09460
 C500 C 0.50446 -0.08412 -0.06401
 C501 C 0.52032 -0.05618 -0.07489
 C502 C 0.54166 -0.04734 -0.11403
 C503 C 0.54546 -0.06622 -0.14510
 H504 H 0.56522 -0.12910 -0.38760
 H505 H 0.56886 -0.09664 -0.31528
 H506 H 0.51320 -0.16266 -0.21129
 H507 H 0.50875 -0.19528 -0.28350
 H508 H 0.49519 -0.12444 -0.08766
 H509 H 0.48794 -0.09153 -0.03397
 H510 H 0.55414 -0.02598 -0.12353
 H511 H 0.56098 -0.05896 -0.17727
 C512 C 0.31163 0.43800 -0.39509
 C513 C 0.33462 0.44525 -0.36267
 C514 C 0.33195 0.43878 -0.30630
 C515 C 0.30576 0.42504 -0.28222
 C516 C 0.28255 0.41789 -0.31466
 C517 C 0.28512 0.42404 -0.37187
 N518 N 0.35631 0.44725 -0.27467
 N519 N 0.35612 0.44132 -0.22368
 C520 C 0.38098 0.45108 -0.19290
 C521 C 0.37958 0.44463 -0.13651
 C522 C 0.40328 0.45579 -0.10418
 C523 C 0.42885 0.47370 -0.12781
 C524 C 0.43038 0.47922 -0.18499
 C525 C 0.40665 0.46804 -0.21728
 H526 H 0.31469 0.44401 -0.43837
 H527 H 0.35470 0.45616 -0.38153
 H528 H 0.30325 0.41991 -0.23850
 H529 H 0.26258 0.40691 -0.29538
 H530 H 0.35998 0.43150 -0.11724
 H531 H 0.40147 0.45106 -0.06026
 H532 H 0.44980 0.49282 -0.20440
 H533 H 0.40833 0.47323 -0.26090
 C534 C 1.13625 0.70770 -0.35920
 C535 C 1.11942 0.68900 -0.31935
 C536 C 1.13059 0.68474 -0.27147
 C537 C 1.15894 0.70004 -0.26303
 C538 C 1.17586 0.71891 -0.30272
 C539 C 1.16482 0.72279 -0.35192
 N540 N 1.11287 0.66369 -0.23413
 N541 N 1.12168 0.65721 -0.19178
 C542 C 1.10391 0.63492 -0.15691
 C543 C 1.11538 0.62628 -0.11626
 C544 C 1.09909 0.60230 -0.08709
 C545 C 1.07093 0.58666 -0.09784
 C546 C 1.05917 0.59634 -0.13604
 C547 C 1.07553 0.62018 -0.16555
 H548 H 1.12687 0.71047 -0.39577
 H549 H 1.09759 0.67737 -0.32635
 H550 H 1.16809 0.69699 -0.22644
 H551 H 1.19772 0.72961 -0.29600
 H552 H 1.13720 0.63745 -0.10909
 H553 H 1.10873 0.59540 -0.05782
 H554 H 1.03756 0.58471 -0.14545
 H555 H 1.06613 0.62650 -0.19658
 C556 C 0.81198 0.47998 -0.36728
 C557 C 0.82694 0.47473 -0.32826
 C558 C 0.85067 0.49611 -0.30466
 C559 C 0.85913 0.52295 -0.31996
 C560 C 0.84411 0.52823 -0.35849
 C561 C 0.82040 0.50682 -0.38262
 N562 N 0.86607 0.49019 -0.26596
 N563 N 0.88934 0.50867 -0.24881
 C564 C 0.90540 0.50375 -0.21009
 C565 C 0.93191 0.52471 -0.19877
 C566 C 0.94840 0.52084 -0.16152
 C567 C 0.93847 0.49591 -0.13434
 C568 C 0.91175 0.47485 -0.14542
 C569 C 0.89532 0.47869 -0.18327
 H570 H 0.79414 0.46307 -0.38626
 H571 H 0.82031 0.45396 -0.31707
 H572 H 0.87735 0.53986 -0.30225
 H573 H 0.85100 0.54909 -0.36968
 H574 H 0.93986 0.54409 -0.21917
 H575 H 0.96889 0.53745 -0.15376
 H576 H 0.90366 0.45542 -0.12514
 H577 H 0.87481 0.46221 -0.19137
 C578 C 0.44210 0.28560 -0.27870
 C579 C 0.44079 0.30361 -0.24025
 C580 C 0.43053 0.32035 -0.25610
 C581 C 0.41887 0.31693 -0.30895
 C582 C 0.41953 0.29848 -0.34702
 C583 C 0.43289 0.28393 -0.33381
 N584 N 0.43520 0.34263 -0.22050
 N585 N 0.43665 0.36413 -0.23936
 C586 C 0.44378 0.38713 -0.20382
 C587 C 0.44182 0.38446 -0.14575
 C588 C 0.45380 0.40746 -0.11142
 C589 C 0.46841 0.43355 -0.13451
 C590 C 0.46829 0.43627 -0.19258
 C591 C 0.45594 0.41310 -0.22700
 H592 H 0.45253 0.27487 -0.26660
 H593 H 0.44980 0.30607 -0.19943
 H594 H 0.41022 0.32924 -0.32147
 H595 H 0.41086 0.29666 -0.38803
 H596 H 0.43202 0.36459 -0.12697
 H597 H 0.45276 0.40468 -0.06672
 H598 H 0.47884 0.45615 -0.21137
 H599 H 0.45743 0.41541 -0.27181
 C600 C 0.72004 0.19539 -0.30413
 C601 C 0.70089 0.18291 -0.26155
 C602 C 0.68292 0.15488 -0.26294
 C603 C 0.68476 0.13923 -0.30683
 C604 C 0.70365 0.15168 -0.34976
 C605 C 0.72111 0.18004 -0.34980
 N606 N 0.66225 0.14288 -0.22089
 N607 N 0.64710 0.11725 -0.21761
 C608 C 0.62541 0.10453 -0.17798
 C609 C 0.61247 0.07637 -0.17267
 C610 C 0.59044 0.06290 -0.13643
 C611 C 0.58063 0.07739 -0.10530
 C612 C 0.59375 0.10577 -0.11023
 C613 C 0.61611 0.11931 -0.14624
 H614 H 0.73310 0.21727 -0.30274
 H615 H 0.69971 0.19519 -0.22791
 H616 H 0.67123 0.11745 -0.30864
 H617 H 0.70457 0.13912 -0.38313
 H618 H 0.61944 0.06480 -0.19697
 H619 H 0.58100 0.04107 -0.13316
 H620 H 0.58663 0.11741 -0.08667
 H621 H 0.62577 0.14114 -0.15003
 C622 C 1.15922 0.41981 -0.31137
 C623 C 1.14397 0.42662 -0.27523
 C624 C 1.13223 0.44160 -0.29423
 C625 C 1.13601 0.44993 -0.34984
 C626 C 1.15117 0.44317 -0.38596
 C627 C 1.16285 0.42777 -0.36756
 N628 N 1.11695 0.44847 -0.25617
 N629 N 1.10563 0.46191 -0.27097
 C630 C 1.09087 0.46915 -0.23225
 C631 C 1.08014 0.48529 -0.24992
 C632 C 1.06704 0.49396 -0.21195
 C633 C 1.06459 0.48654 -0.15576
 C634 C 1.07466 0.46966 -0.13867
 C635 C 1.08769 0.46107 -0.17646
 H636 H 1.16754 0.40769 -0.29575
 H637 H 1.14120 0.42012 -0.23232
 H638 H 1.12744 0.46185 -0.36534
 H639 H 1.15430 0.45062 -0.42820
 H640 H 1.08241 0.49159 -0.29291
 H641 H 1.05938 0.50688 -0.22620
 H642 H 1.07293 0.46344 -0.09569
 H643 H 1.09564 0.44848 -0.16179
 C644 C 0.48909 0.69171 -0.31625
 C645 C 0.48578 0.67382 -0.27364
 C646 C 0.50675 0.66845 -0.26125
 C647 C 0.53101 0.68084 -0.29278
 C648 C 0.53421 0.69851 -0.33577
 C649 C 0.51332 0.70413 -0.34745
 N650 N 0.50265 0.64978 -0.21780
 N651 N 0.52196 0.64642 -0.20066
 C652 C 0.51790 0.62670 -0.15968
 C653 C 0.53984 0.62305 -0.14632
 C654 C 0.53582 0.60141 -0.11311
 C655 C 0.50968 0.58306 -0.09255
 C656 C 0.48805 0.58790 -0.10267
 C657 C 0.49209 0.60953 -0.13620
 H658 H 0.47282 0.69592 -0.32496
 H659 H 0.46692 0.66420 -0.25004
 H660 H 0.54736 0.67672 -0.28448
 H661 H 0.55300 0.70800 -0.35964
 H662 H 0.55984 0.63626 -0.16390
 H663 H 0.55291 0.59829 -0.10576
 H664 H 0.46769 0.57413 -0.08728
 H665 H 0.47485 0.61211 -0.14563
 C666 C 0.28402 -0.13742 -0.32727
 C667 C 0.30504 -0.11867 -0.29287
 C668 C 0.32971 -0.11871 -0.28959
 C669 C 0.33274 -0.13858 -0.31896
 C670 C 0.31161 -0.15762 -0.35250
 C671 C 0.28727 -0.15686 -0.35802
 N672 N 0.35138 -0.09846 -0.25628
 N673 N 0.37578 -0.09383 -0.26077
 C674 C 0.39726 -0.07443 -0.22579
 C675 C 0.42393 -0.06940 -0.23426
 C676 C 0.44477 -0.05266 -0.19719
 C677 C 0.43900 -0.04101 -0.15084
 C678 C 0.41251 -0.04512 -0.14392
 C679 C 0.39182 -0.06160 -0.18115
 H680 H 0.26570 -0.13605 -0.33159
 H681 H 0.30247 -0.10350 -0.27017
 H682 H 0.35150 -0.13922 -0.31640
 H683 H 0.31455 -0.17245 -0.37571
 H684 H 0.42834 -0.07917 -0.26862
 H685 H 0.46499 -0.04995 -0.20317
 H686 H 0.40756 -0.03631 -0.10855
 H687 H 0.37141 -0.06510 -0.17379
 C688 C 0.54822 -0.14013 0.36892
 C689 C 0.54659 -0.12268 0.33085
 C690 C 0.52485 -0.13247 0.29323
 C691 C 0.50500 -0.16021 0.29290
 C692 C 0.50657 -0.17768 0.33111
 C693 C 0.52797 -0.16765 0.36990
 N694 N 0.52261 -0.11350 0.25841
 N695 N 0.50361 -0.12063 0.22282
 C696 C 0.50110 -0.10091 0.19092
 C697 C 0.48107 -0.10962 0.14955
 C698 C 0.47741 -0.09072 0.11974
 C699 C 0.49364 -0.06278 0.13142
 C700 C 0.51388 -0.05413 0.17270
 C701 C 0.51764 -0.07298 0.20203
 H702 H 0.56491 -0.13212 0.39843
 H703 H 0.56198 -0.10134 0.33143
 H704 H 0.48801 -0.16821 0.26416
 H705 H 0.49079 -0.19888 0.33137
 H706 H 0.46811 -0.13110 0.14079
 H707 H 0.46164 -0.09798 0.08823
 H708 H 0.52679 -0.03276 0.18263
 H709 H 0.53318 -0.06570 0.23401
 C710 C 0.27916 0.40591 0.30545
 C711 C 0.30146 0.41134 0.27126
 C712 C 0.32812 0.42989 0.28859
 C713 C 0.33230 0.44309 0.34048
 C714 C 0.31012 0.43777 0.37443
 C715 C 0.28341 0.41909 0.35733
 N716 N 0.35050 0.43595 0.25198
 N717 N 0.37512 0.45230 0.26607
 C718 C 0.39739 0.45972 0.22832
 C719 C 0.39307 0.44851 0.17438
 C720 C 0.41432 0.45878 0.13576
 C721 C 0.44024 0.48048 0.15020
 C722 C 0.44497 0.49057 0.20516
 C723 C 0.42360 0.48018 0.24397
 H724 H 0.25868 0.39144 0.29169
 H725 H 0.29799 0.40122 0.23112
 H726 H 0.35266 0.45771 0.35455
 H727 H 0.31376 0.44828 0.41418
 H728 H 0.37308 0.43252 0.16141
 H729 H 0.41015 0.45040 0.09383
 H730 H 0.46475 0.50726 0.21740
 H731 H 0.42715 0.48889 0.28558
 C732 C 1.13513 0.70832 0.36037
 C733 C 1.12003 0.68847 0.32020
 C734 C 1.13328 0.68179 0.27864
 C735 C 1.16195 0.69589 0.27640
 C736 C 1.17707 0.71584 0.31645
 C737 C 1.16376 0.72179 0.35930
 N738 N 1.11711 0.65960 0.24157
 N739 N 1.12742 0.65106 0.20469
 C740 C 1.11047 0.62776 0.17059
 C741 C 1.12250 0.61813 0.13209
 C742 C 1.10638 0.59406 0.10184
 C743 C 1.07795 0.57927 0.11004
 C744 C 1.06595 0.58955 0.14742
 C745 C 1.08199 0.61349 0.17732
 H746 H 1.12455 0.71281 0.39295
 H747 H 1.09794 0.67773 0.32226
 H748 H 1.17261 0.69110 0.24457
 H749 H 1.19917 0.72612 0.31501
 H750 H 1.14445 0.62894 0.12653
 H751 H 1.11620 0.58668 0.07325
 H752 H 1.04410 0.57881 0.15450
 H753 H 1.07211 0.62047 0.20666
 C754 C 0.50298 0.20519 0.34626
 C755 C 0.50815 0.19137 0.30352
 C756 C 0.48966 0.16388 0.29282
 C757 C 0.46596 0.15023 0.32572
 C758 C 0.46093 0.16393 0.36866
 C759 C 0.47935 0.19147 0.37905
 N760 N 0.49549 0.14996 0.24945
 N761 N 0.47789 0.12580 0.23534
 C762 C 0.48291 0.11035 0.19435
 C763 C 0.46195 0.08399 0.18257
 C764 C 0.46656 0.06711 0.14709
 C765 C 0.49235 0.07639 0.12256
 C766 C 0.51317 0.10329 0.13256
 C767 C 0.50851 0.12020 0.16849
 H768 H 0.51730 0.22652 0.35382
 H769 H 0.52648 0.20209 0.27855
 H770 H 0.45138 0.12895 0.31846
 H771 H 0.44255 0.15317 0.39349
 H772 H 0.44219 0.07622 0.20238
 H773 H 0.45010 0.04649 0.14012
 H774 H 0.53327 0.11082 0.11456
 H775 H 0.52505 0.14054 0.17734
 C776 C 0.72105 0.56760 0.32804
 C777 C 0.70452 0.56862 0.28625
 C778 C 0.68517 0.54475 0.25916
 C779 C 0.68219 0.51969 0.27488
 C780 C 0.69832 0.51862 0.31720
 C781 C 0.71787 0.54254 0.34387
 N782 N 0.66789 0.54616 0.21776
 N783 N 0.65322 0.52598 0.18599
 C784 C 0.63408 0.52604 0.14755
 C785 C 0.61893 0.50306 0.11389
 C786 C 0.59703 0.50045 0.08258
 C787 C 0.58982 0.52078 0.08503
 C788 C 0.60623 0.54466 0.11601
 C789 C 0.62823 0.54730 0.14700
 H790 H 0.73627 0.58623 0.34801
 H791 H 0.70687 0.58802 0.27467
 H792 H 0.66720 0.50094 0.25494
 H793 H 0.69586 0.49917 0.32878
 H794 H 0.62324 0.48653 0.11411
 H795 H 0.58475 0.48177 0.05934
 H796 H 0.60123 0.56070 0.11870
 H797 H 0.63973 0.56529 0.17267
 C798 C 0.82199 0.30225 0.31467
 C799 C 0.83620 0.32098 0.27278
 C800 C 0.86415 0.33091 0.26503
 C801 C 0.87776 0.32160 0.29929
 C802 C 0.86356 0.30288 0.34115
 C803 C 0.83565 0.29329 0.34941
 N804 N 0.87851 0.35120 0.22387
 N805 N 0.90399 0.36113 0.21591
 C806 C 0.91917 0.38230 0.17702
 C807 C 0.94745 0.39338 0.17472
 C808 C 0.96341 0.41572 0.14132
 C809 C 0.95125 0.42728 0.10919
 C810 C 0.92269 0.41546 0.10969
 C811 C 0.90672 0.39314 0.14363
 H812 H 0.80044 0.29504 0.32065
 H813 H 0.82554 0.32809 0.24686
 H814 H 0.89940 0.32906 0.29426
 H815 H 0.87435 0.29610 0.36756
 H816 H 0.95722 0.38514 0.20021
 H817 H 0.98536 0.42429 0.14154
 H818 H 0.91283 0.42398 0.08536
 H819 H 0.88482 0.38481 0.14471
   
