data_POSCAR
  _audit_creation_date              2014-09-24
  _audit_creation_method            'ToBaCCo'
  _symmetry_space_group_name_H-M    'P1'
  _symmetry_Int_Tables_number       1
  _symmetry_cell_setting            triclinic
  loop_
  _symmetry_equiv_pos_as_xyz
 x,y,z
_cell_length_a 26.5345
_cell_length_b 26.3672
_cell_length_c 26.7095
_cell_angle_alpha 86.501100
_cell_angle_beta 92.349400
_cell_angle_gamma 89.849800
loop_
  _atom_site_label
  _atom_site_type_symbol
  _atom_site_fract_x
  _atom_site_fract_y
  _atom_site_fract_z
Si1 Si -0.00403 0.48977 0.25371
 Si2 Si 0.01448 0.51810 0.74772
 Si3 Si 0.24567 -0.00338 0.51182
 Si4 Si 0.75371 -0.00456 0.49019
 Si5 Si 0.49383 0.25103 1.01180
 Si6 Si 0.49372 0.74821 0.98232
 B7 B 0.99609 1.05578 0.03207
 B8 B 0.99448 1.05845 -0.03249
 B9 B 1.04826 1.03727 0.00306
 B10 B 1.02904 1.00130 0.05448
 B11 B 0.96458 1.00221 0.05285
 B12 B 0.94167 1.03642 -0.00034
 B13 B 0.99616 0.95227 -0.03073
 B14 B 0.99603 0.94940 0.03454
 B15 B 0.94253 0.97096 -0.00089
 B16 B 0.96294 1.00599 -0.05286
 B17 B 1.02790 1.00694 -0.05036
 B18 B 1.04880 0.97116 0.00257
 B19 B 0.55652 0.49220 0.46631
 B20 B 0.55911 0.49345 0.53054
 B21 B 0.54048 0.54692 0.49415
 B22 B 0.50517 0.52816 0.44353
 B23 B 0.50169 0.46299 0.44740
 B24 B 0.53408 0.44047 0.50206
 B25 B 0.45331 0.49910 0.52974
 B26 B 0.45159 0.49846 0.46459
 B27 B 0.46929 0.44462 0.50211
 B28 B 0.50517 0.46367 0.55254
 B29 B 0.50818 0.52871 0.54869
 B30 B 0.47519 0.55089 0.49482
 C31 C 1.00482 1.34721 0.15909
 C32 C 0.96120 1.37752 0.15583
 C33 C 0.95971 1.42214 0.18159
 C34 C 1.00133 1.43602 0.21177
 C35 C 1.04610 1.40747 0.21171
 C36 C 1.04766 1.36307 0.18590
 C37 C 1.00498 1.29860 0.13738
 C38 C 1.00485 1.25735 0.12026
 C39 C 1.00362 1.20809 0.09988
 C40 C 0.96736 1.19783 0.06293
 C41 C 0.96634 1.15046 0.04252
 C42 C 0.99919 1.11062 0.05919
 C43 C 1.03819 1.12371 0.09395
 C44 C 1.03969 1.17111 0.11493
 H45 H 0.92796 1.36592 0.13463
 H46 H 0.92530 1.44448 0.17989
 H47 H 1.07978 1.41851 0.23222
 H48 H 1.08191 1.34043 0.18794
 H49 H 0.94063 1.22692 0.04873
 H50 H 0.94180 1.14657 0.01140
 H51 H 1.07015 1.09923 0.10274
 H52 H 1.06994 1.17935 0.14166
 C53 C 0.97998 0.64825 0.16799
 C54 C 0.94033 0.62948 0.19649
 C55 C 0.94286 0.58023 0.21887
 C56 C 0.98556 0.54968 0.21371
 C57 C 1.02301 0.56700 0.18134
 C58 C 1.02055 0.61638 0.15903
 C59 C 0.98072 0.70103 0.15100
 C60 C 0.98257 0.74541 0.13755
 C61 C 0.98648 0.79800 0.12066
 C62 C 0.94389 0.82889 0.11335
 C63 C 0.94846 0.87802 0.09108
 C64 C 0.99400 0.89596 0.07102
 C65 C 1.03688 0.86817 0.08974
 C66 C 1.03350 0.81894 0.11170
 H67 H 0.90833 0.65349 0.20293
 H68 H 0.91212 0.56715 0.24145
 H69 H 1.05572 0.54358 0.17600
 H70 H 1.05121 0.63036 0.13653
 H71 H 0.90728 0.81516 0.12433
 H72 H 0.91565 0.90225 0.08993
 H73 H 1.07374 0.88255 0.08707
 H74 H 1.06765 0.79720 0.12122
 C75 C 0.99323 1.35784 -0.17271
 C76 C 1.03709 1.36922 -0.19826
 C77 C 1.04469 1.41801 -0.21955
 C78 C 1.00865 1.45639 -0.21526
 C79 C 0.96513 1.44530 -0.18855
 C80 C 0.95744 1.39611 -0.16723
 C81 C 0.98589 1.30647 -0.15305
 C82 C 0.98363 1.26274 -0.13726
 C83 C 0.98575 1.21061 -0.11792
 C84 C 1.03251 1.18804 -0.10625
 C85 C 1.03537 1.13885 -0.08394
 C86 C 0.99235 1.11239 -0.06793
 C87 C 0.94656 1.13202 -0.08970
 C88 C 0.94247 1.18134 -0.11230
 H89 H 1.06505 1.33996 -0.20271
 H90 H 1.07803 1.42474 -0.24081
 H91 H 0.93645 1.47415 -0.18565
 H92 H 0.92333 1.38773 -0.14745
 H93 H 1.06697 1.20851 -0.11406
 H94 H 1.07205 1.12354 -0.07816
 H95 H 0.91422 1.10768 -0.09238
 H96 H 0.90596 1.19605 -0.12592
 C97 C 1.02170 0.66592 -0.16566
 C98 C 1.01269 0.61954 -0.13896
 C99 C 1.01102 0.57431 -0.16400
 C100 C 1.01794 0.57564 -0.21580
 C101 C 1.02777 0.62204 -0.24199
 C102 C 1.02957 0.66691 -0.21710
 C103 C 1.02035 0.71319 -0.14164
 C104 C 1.01784 0.75381 -0.12356
 C105 C 1.01268 0.80266 -0.10316
 C106 C 0.96724 0.81604 -0.08358
 C107 C 0.96154 0.86343 -0.06402
 C108 C 1.00078 0.89904 -0.06131
 C109 C 1.04533 0.88538 -0.08533
 C110 C 1.05149 0.83798 -0.10522
 H111 H 1.00636 0.61847 -0.09910
 H112 H 1.00374 0.53875 -0.14322
 H113 H 1.03336 0.62367 -0.28201
 H114 H 1.03634 0.70251 -0.23815
 H115 H 0.93561 0.79012 -0.08414
 H116 H 0.92495 0.87169 -0.05424
 H117 H 1.07696 0.91054 -0.08839
 H118 H 1.08668 0.82899 -0.12197
 C119 C 1.16853 0.98444 0.35249
 C120 C 1.13800 0.98781 0.39399
 C121 C 1.16004 0.99178 0.44236
 C122 C 1.21268 0.99271 0.44923
 C123 C 1.24284 0.98906 0.40760
 C124 C 1.22098 0.98504 0.35964
 C125 C 1.14671 0.98258 0.30218
 C126 C 1.12897 0.98290 0.25974
 C127 C 1.10632 0.98651 0.20954
 C128 C 1.12529 0.96003 0.17058
 C129 C 1.10242 0.96537 0.12207
 C130 C 1.05981 0.99717 0.11065
 C131 C 1.04291 1.02386 0.15139
 C132 C 1.06529 1.01867 0.19943
 H133 H 1.09729 0.98765 0.38890
 H134 H 1.13622 0.99416 0.47407
 H135 H 1.28359 0.98948 0.41221
 H136 H 1.24504 0.98276 0.32803
 H137 H 1.15791 0.93543 0.17749
 H138 H 1.11976 0.94498 0.09374
 H139 H 1.01160 1.04959 0.14741
 H140 H 1.05025 1.04008 0.22889
 C141 C 1.16279 1.00923 -0.33843
 C142 C 1.15167 1.04405 -0.37927
 C143 C 1.17370 1.03835 -0.42555
 C144 C 1.20682 0.99771 -0.43140
 C145 C 1.21669 0.96234 -0.39066
 C146 C 1.19469 0.96797 -0.34468
 C147 C 1.14202 1.01511 -0.28988
 C148 C 1.12472 1.01731 -0.24885
 C149 C 1.10241 1.01616 -0.20030
 C150 C 1.12216 1.04377 -0.16103
 C151 C 1.09996 1.04057 -0.11401
 C152 C 1.05734 1.00975 -0.10451
 C153 C 1.03926 0.98197 -0.14539
 C154 C 1.06105 0.98512 -0.19199
 H155 H 1.12690 1.07609 -0.37506
 H156 H 1.16639 1.06663 -0.45613
 H157 H 1.24300 0.93138 -0.39331
 H158 H 1.20357 0.94069 -0.31355
 H159 H 1.15493 1.06756 -0.16653
 H160 H 1.11776 1.06183 -0.08526
 H161 H 1.00721 0.95738 -0.14260
 H162 H 1.04531 0.96304 -0.22173
 C163 C 0.83835 1.01637 0.34163
 C164 C 0.78671 1.00628 0.34133
 C165 C 0.76225 1.00032 0.38634
 C166 C 0.78908 1.00474 0.43215
 C167 C 0.84093 1.01478 0.43266
 C168 C 0.86561 1.02062 0.38729
 C169 C 0.86294 1.01928 0.29478
 C170 C 0.88144 1.01931 0.25445
 C171 C 0.90216 1.01620 0.20602
 C172 C 0.89554 1.05551 0.16912
 C173 C 0.91512 1.05099 0.12182
 C174 C 0.93927 1.00574 0.10855
 C175 C 0.94934 0.96927 0.14897
 C176 C 0.92980 0.97346 0.19609
 H177 H 0.76544 1.00242 0.30627
 H178 H 0.72222 0.99223 0.38539
 H179 H 0.86226 1.01772 0.46775
 H180 H 0.90579 1.02785 0.38780
 H181 H 0.87578 1.08997 0.17699
 H182 H 0.91097 1.08372 0.09597
 H183 H 0.97775 0.94064 0.14760
 H184 H 0.93827 0.94420 0.22554
 C185 C 0.83967 0.99897 -0.35494
 C186 C 0.81526 0.95472 -0.36855
 C187 C 0.79167 0.95284 -0.41594
 C188 C 0.79257 0.99514 -0.45046
 C189 C 0.81815 1.03912 -0.43719
 C190 C 0.84172 1.04104 -0.38949
 C191 C 0.86013 1.00150 -0.30461
 C192 C 0.87630 1.00272 -0.26196
 C193 C 0.89559 1.00407 -0.21110
 C194 C 0.88481 0.96527 -0.17552
 C195 C 0.90557 0.96598 -0.12661
 C196 C 0.93552 1.00667 -0.11031
 C197 C 0.94884 1.04275 -0.14924
 C198 C 0.92818 1.04251 -0.19798
 H199 H 0.81321 0.92211 -0.34198
 H200 H 0.77132 0.91879 -0.42446
 H201 H 0.81847 1.07239 -0.46304
 H202 H 0.86036 1.07560 -0.37913
 H203 H 0.86138 0.93364 -0.18583
 H204 H 0.89823 0.93343 -0.10267
 H205 H 0.97959 1.06846 -0.14488
 H206 H 0.93977 1.07105 -0.22607
 C207 C 1.33228 1.18552 0.02846
 C208 C 1.34406 1.21532 -0.01442
 C209 C 1.39297 1.23308 -0.02014
 C210 C 1.43096 1.22087 0.01683
 C211 C 1.41916 1.19079 0.05984
 C212 C 1.36993 1.17289 0.06554
 C213 C 1.28188 1.16653 0.03270
 C214 C 1.23995 1.14933 0.03368
 C215 C 1.19145 1.12538 0.03244
 C216 C 1.14790 1.15149 0.01487
 C217 C 1.10265 1.12494 0.00816
 C218 C 1.10029 1.07116 0.01442
 C219 C 1.14338 1.04839 0.03937
 C220 C 1.18845 1.07413 0.04668
 H221 H 1.31528 1.22515 -0.04339
 H222 H 1.40031 1.25740 -0.05304
 H223 H 1.44771 1.18195 0.08925
 H224 H 1.36117 1.14956 0.09882
 H225 H 1.14868 1.19222 0.00664
 H226 H 1.06935 1.14770 0.00028
 H227 H 1.14447 1.00953 0.05139
 H228 H 1.22136 1.05347 0.06241
 C229 C 0.63838 1.15056 0.01922
 C230 C 0.64000 1.20270 0.00674
 C231 C 0.59596 1.23141 0.00400
 C232 C 0.54956 1.20846 0.01385
 C233 C 0.54745 1.15594 0.02560
 C234 C 0.59205 1.12689 0.02839
 C235 C 0.68526 1.12309 0.02169
 C236 C 0.72715 1.10555 0.02156
 C237 C 0.77885 1.09032 0.01847
 C238 C 0.81070 1.12073 -0.01001
 C239 C 0.86106 1.10710 -0.01449
 C240 C 0.88259 1.06110 0.00777
 C241 C 0.84837 1.03315 0.03940
 C242 C 0.79805 1.04703 0.04435
 H243 H 0.67554 1.22133 -0.00065
 H244 H 0.59828 1.27192 -0.00516
 H245 H 0.51183 1.13768 0.03301
 H246 H 0.59048 1.08640 0.03779
 H247 H 0.79667 1.15601 -0.02861
 H248 H 0.88040 1.13643 -0.03389
 H249 H 0.85883 0.99769 0.05917
 H250 H 0.77404 1.02319 0.06761
 C251 C 1.33498 0.82409 -0.02337
 C252 C 1.37784 0.85496 -0.01945
 C253 C 1.42620 0.83344 -0.01967
 C254 C 1.43161 0.78100 -0.02357
 C255 C 1.38854 0.75066 -0.02889
 C256 C 1.34052 0.77207 -0.02874
 C257 C 1.28526 0.84517 -0.02051
 C258 C 1.24374 0.86310 -0.01782
 C259 C 1.19535 0.88703 -0.01479
 C260 C 1.19043 0.93827 -0.02894
 C261 C 1.14456 0.96285 -0.02474
 C262 C 1.10237 0.93895 -0.00314
 C263 C 1.10699 0.88539 0.00456
 C264 C 1.15305 0.85996 0.00064
 H265 H 1.37385 0.89538 -0.01537
 H266 H 1.45898 0.85737 -0.01557
 H267 H 1.39207 0.71001 -0.03175
 H268 H 1.30773 0.74788 -0.03186
 H269 H 1.22220 0.95958 -0.04326
 H270 H 1.14401 1.00167 -0.03693
 H271 H 1.07431 0.86190 0.00927
 H272 H 1.15513 0.81917 0.00820
 C273 C 0.64164 0.84460 -0.01902
 C274 C 0.63075 0.81139 -0.05677
 C275 C 0.58576 0.78414 -0.05719
 C276 C 0.55055 0.78993 -0.02003
 C277 C 0.56111 0.82391 0.01745
 C278 C 0.60651 0.85119 0.01796
 C279 C 0.69039 0.86877 -0.01708
 C280 C 0.73232 0.88655 -0.01630
 C281 C 0.78338 0.90537 -0.01532
 C282 C 0.82205 0.87572 0.00780
 C283 C 0.87161 0.89354 0.00913
 C284 C 0.88500 0.94308 -0.00929
 C285 C 0.84516 0.96903 -0.03825
 C286 C 0.79542 0.95134 -0.04017
 H287 H 0.65774 0.80548 -0.08526
 H288 H 0.57965 0.75747 -0.08594
 H289 H 0.53492 0.82830 0.04694
 H290 H 0.61469 0.87642 0.04773
 H291 H 0.81430 0.83776 0.02342
 H292 H 0.89924 0.86501 0.01957
 H293 H 0.85138 1.00490 -0.05855
 H294 H 0.76640 0.97393 -0.06079
 C295 C 0.85097 0.48006 0.34563
 C296 C 0.88607 0.51865 0.35337
 C297 C 0.93190 0.51871 0.32928
 C298 C 0.94239 0.48084 0.29640
 C299 C 0.90902 0.43998 0.29229
 C300 C 0.86331 0.43982 0.31649
 C301 C 0.80114 0.48318 0.36463
 C302 C 0.75886 0.48538 0.37929
 C303 C 0.70828 0.48669 0.39669
 C304 C 0.67965 0.53123 0.39184
 C305 C 0.63137 0.53222 0.41101
 C306 C 0.61033 0.48917 0.43678
 C307 C 0.63940 0.44406 0.43767
 C308 C 0.68747 0.44286 0.41857
 H309 H 0.87717 0.54973 0.37629
 H310 H 0.95759 0.55016 0.33356
 H311 H 0.91697 0.40913 0.26901
 H312 H 0.83680 0.40929 0.31093
 H313 H 0.69469 0.56542 0.37358
 H314 H 0.61093 0.56744 0.40495
 H315 H 0.62716 0.40897 0.45501
 H316 H 0.70882 0.40762 0.42182
 C317 C 0.15399 0.49307 0.33534
 C318 C 0.13467 0.53722 0.30976
 C319 C 0.08556 0.53797 0.28890
 C320 C 0.05559 0.49424 0.29269
 C321 C 0.07344 0.45164 0.32235
 C322 C 0.12278 0.45079 0.34309
 C323 C 0.20640 0.49094 0.35139
 C324 C 0.25054 0.49062 0.36398
 C325 C 0.30292 0.49230 0.37983
 C326 C 0.32625 0.53899 0.38506
 C327 C 0.37483 0.54102 0.40692
 C328 C 0.40000 0.49708 0.42779
 C329 C 0.37933 0.45054 0.41292
 C330 C 0.33066 0.44784 0.39108
 H331 H 0.15812 0.57055 0.30450
 H332 H 0.07208 0.57227 0.26852
 H333 H 0.05047 0.41787 0.32657
 H334 H 0.13711 0.41665 0.36349
 H335 H 0.30646 0.57404 0.37350
 H336 H 0.39048 0.57767 0.40892
 H337 H 0.40059 0.41560 0.41863
 H338 H 0.31454 0.41114 0.38396
 C339 C 0.86080 0.52014 0.65700
 C340 C 0.87410 0.56087 0.68589
 C341 C 0.92168 0.56222 0.71009
 C342 C 0.95676 0.52292 0.70549
 C343 C 0.94409 0.48316 0.67481
 C344 C 0.89625 0.48175 0.65066
 C345 C 0.80981 0.51630 0.63688
 C346 C 0.76681 0.51265 0.62099
 C347 C 0.71570 0.50716 0.60175
 C348 C 0.67876 0.54322 0.60947
 C349 C 0.63002 0.53841 0.58810
 C350 C 0.61566 0.49660 0.55958
 C351 C 0.65478 0.46192 0.55198
 C352 C 0.70343 0.46650 0.57295
 H353 H 0.84699 0.59066 0.69127
 H354 H 0.92973 0.59288 0.73420
 H355 H 0.97024 0.45205 0.67149
 H356 H 0.88633 0.44989 0.62853
 H357 H 0.68808 0.57628 0.63011
 H358 H 0.60520 0.57059 0.58998
 H359 H 0.64967 0.43125 0.52876
 H360 H 0.73191 0.43869 0.56554
 C361 C 0.17147 0.51728 0.67562
 C362 C 0.12765 0.51647 0.64435
 C363 C 0.07994 0.51719 0.66505
 C364 C 0.07607 0.51847 0.71709
 C365 C 0.12004 0.51995 0.74803
 C366 C 0.16746 0.51926 0.72745
 C367 C 0.22059 0.51534 0.65486
 C368 C 0.26139 0.51332 0.63678
 C369 C 0.30857 0.51050 0.61235
 C370 C 0.30771 0.50939 0.56054
 C371 C 0.35241 0.50581 0.53559
 C372 C 0.40035 0.50322 0.56076
 C373 C 0.39981 0.50449 0.61382
 C374 C 0.35480 0.50806 0.63922
 H375 H 0.13038 0.51500 0.60411
 H376 H 0.04642 0.51634 0.64065
 H377 H 0.11767 0.52110 0.78835
 H378 H 0.20097 0.51993 0.75198
 H379 H 0.27213 0.51110 0.53900
 H380 H 0.34727 0.50510 0.49616
 H381 H 0.43403 0.50188 0.63682
 H382 H 0.35621 0.50858 0.67978
 C383 C 0.50104 0.66575 0.14277
 C384 C 0.46063 0.69773 0.12733
 C385 C 0.45794 0.72074 0.07892
 C386 C 0.49545 0.71185 0.04474
 C387 C 0.53591 0.67939 0.06011
 C388 C 0.53863 0.65627 0.10897
 C389 C 0.50361 0.64392 0.19368
 C390 C 0.50441 0.62627 0.23651
 C391 C 0.50529 0.60436 0.28736
 C392 C 0.47595 0.62438 0.32376
 C393 C 0.47642 0.60157 0.37264
 C394 C 0.50612 0.55806 0.38693
 C395 C 0.53562 0.53944 0.34882
 C396 C 0.53529 0.56199 0.30028
 H397 H 0.43149 0.70563 0.15309
 H398 H 0.42692 0.74655 0.06923
 H399 H 0.56571 0.67275 0.03475
 H400 H 0.57028 0.63167 0.12057
 H401 H 0.45274 0.65776 0.31447
 H402 H 0.45472 0.62007 0.39931
 H403 H 0.55811 0.50561 0.35487
 H404 H 0.55799 0.54559 0.27250
 C405 C 0.49098 0.66071 0.83560
 C406 C 0.48265 0.71310 0.83438
 C407 C 0.48318 0.73804 0.87887
 C408 C 0.49218 0.71103 0.92529
 C409 C 0.49967 0.65830 0.92683
 C410 C 0.49925 0.63315 0.88193
 C411 C 0.49244 0.63648 0.78878
 C412 C 0.49427 0.61838 0.74848
 C413 C 0.49755 0.59779 0.69998
 C414 C 0.46372 0.61263 0.66059
 C415 C 0.46715 0.59178 0.61386
 C416 C 0.50610 0.55723 0.60328
 C417 C 0.53730 0.54133 0.64566
 C418 C 0.53408 0.56167 0.69241
 H419 H 0.47629 0.73484 0.79892
 H420 H 0.47716 0.77878 0.87696
 H421 H 0.50631 0.63684 0.96233
 H422 H 0.50578 0.59252 0.88328
 H423 H 0.43323 0.63876 0.66648
 H424 H 0.43523 0.59929 0.58868
 H425 H 0.56511 0.51284 0.64426
 H426 H 0.55991 0.54846 0.72296
 C427 C 0.50388 0.34344 0.15442
 C428 C 0.46557 0.35446 0.11764
 C429 C 0.46419 0.32894 0.07314
 C430 C 0.50105 0.29235 0.06539
 C431 C 0.54005 0.28268 0.10190
 C432 C 0.54152 0.30825 0.14602
 C433 C 0.50308 0.36497 0.20242
 C434 C 0.50284 0.38119 0.24353
 C435 C 0.50229 0.39983 0.29285
 C436 C 0.46631 0.43523 0.30366
 C437 C 0.46647 0.45448 0.35105
 C438 C 0.50027 0.43699 0.39133
 C439 C 0.53871 0.40410 0.37689
 C440 C 0.53906 0.38474 0.32933
 H441 H 0.43603 0.38147 0.12402
 H442 H 0.43339 0.33627 0.04576
 H443 H 0.56840 0.25395 0.09780
 H444 H 0.57106 0.29918 0.17441
 H445 H 0.43946 0.44999 0.27467
 H446 H 0.44312 0.48734 0.35264
 H447 H 0.56951 0.39264 0.40143
 H448 H 0.56877 0.35872 0.32083
 C449 C 0.49901 0.32788 0.85094
 C450 C 0.50047 0.35870 0.89199
 C451 C 0.49914 0.33652 0.94095
 C452 C 0.49616 0.28360 0.94864
 C453 C 0.49518 0.25311 0.90741
 C454 C 0.49650 0.27513 0.85883
 C455 C 0.50017 0.34955 0.80045
 C456 C 0.50121 0.36606 0.75753
 C457 C 0.50277 0.38528 0.70624
 C458 C 0.54828 0.40117 0.68674
 C459 C 0.54939 0.42310 0.63798
 C460 C 0.50506 0.43124 0.60741
 C461 C 0.46018 0.41072 0.62707
 C462 C 0.45886 0.38875 0.67587
 H463 H 0.50259 0.39964 0.88613
 H464 H 0.50031 0.36049 0.97244
 H465 H 0.49308 0.21212 0.91282
 H466 H 0.49549 0.25100 0.82738
 H467 H 0.58291 0.39791 0.70969
 H468 H 0.58541 0.43641 0.62656
 H469 H 0.42494 0.41248 0.60566
 H470 H 0.42332 0.37533 0.69012
 C471 C 0.69058 0.83212 0.47859
 C472 C 0.65693 0.87222 0.48484
 C473 C 0.67494 0.92185 0.48792
 C474 C 0.72665 0.93128 0.48497
 C475 C 0.75998 0.89110 0.47805
 C476 C 0.74205 0.84174 0.47498
 C477 C 0.67242 0.78106 0.47625
 C478 C 0.65589 0.73873 0.47450
 C479 C 0.63241 0.68989 0.47272
 C480 C 0.58390 0.68717 0.45191
 C481 C 0.55767 0.64167 0.45573
 C482 C 0.57671 0.59808 0.48378
 C483 C 0.62934 0.59981 0.49538
 C484 C 0.65632 0.64548 0.49235
 H485 H 0.61692 0.86504 0.48754
 H486 H 0.64877 0.95249 0.49296
 H487 H 0.80007 0.89788 0.47557
 H488 H 0.76833 0.81109 0.47007
 H489 H 0.56543 0.72071 0.43409
 H490 H 0.52047 0.64337 0.44010
 H491 H 0.65134 0.56594 0.50343
 H492 H 0.69570 0.64588 0.50473
 C493 C 0.65167 0.13762 0.50238
 C494 C 0.68048 0.13301 0.46028
 C495 C 0.70860 0.08910 0.45524
 C496 C 0.70795 0.04881 0.49208
 C497 C 0.67761 0.05270 0.53353
 C498 C 0.64955 0.09710 0.53874
 C499 C 0.62748 0.18553 0.50871
 C500 C 0.60949 0.22726 0.51125
 C501 C 0.58975 0.27809 0.51132
 C502 C 0.60753 0.31130 0.54651
 C503 C 0.59011 0.36155 0.54433
 C504 C 0.55659 0.38145 0.50545
 C505 C 0.53613 0.34498 0.47337
 C506 C 0.55326 0.29484 0.47524
 H507 H 0.68264 0.16420 0.43208
 H508 H 0.73233 0.08808 0.42344
 H509 H 0.67730 0.02238 0.56275
 H510 H 0.62754 0.10040 0.57167
 H511 H 0.63468 0.29836 0.57597
 H512 H 0.60320 0.38355 0.57409
 H513 H 0.50364 0.35368 0.44886
 H514 H 0.53712 0.26890 0.44909
 C515 C 0.33606 0.84424 0.51532
 C516 C 0.28336 0.84495 0.51425
 C517 C 0.25738 0.89094 0.51449
 C518 C 0.28366 0.93695 0.51610
 C519 C 0.33655 0.93645 0.51760
 C520 C 0.36274 0.89008 0.51725
 C521 C 0.36178 0.79619 0.51314
 C522 C 0.38128 0.75500 0.51081
 C523 C 0.40344 0.70531 0.50771
 C524 C 0.37384 0.66437 0.49403
 C525 C 0.39552 0.61616 0.49127
 C526 C 0.44795 0.60754 0.49847
 C527 C 0.47516 0.64870 0.51845
 C528 C 0.45403 0.69694 0.52126
 H529 H 0.26226 0.80991 0.51260
 H530 H 0.21652 0.89064 0.51286
 H531 H 0.35741 0.97164 0.51819
 H532 H 0.40358 0.89002 0.51788
 H533 H 0.33362 0.66933 0.48655
 H534 H 0.36990 0.58613 0.48500
 H535 H 0.51255 0.64329 0.53523
 H536 H 0.47695 0.72725 0.53551
 C537 C 0.32164 0.15557 0.51863
 C538 C 0.33253 0.11759 0.55664
 C539 C 0.31229 0.06878 0.55317
 C540 C 0.28127 0.05753 0.51154
 C541 C 0.27144 0.09549 0.47312
 C542 C 0.29164 0.14408 0.47658
 C543 C 0.34107 0.20634 0.52239
 C544 C 0.35821 0.24859 0.52450
 C545 C 0.38157 0.29786 0.52594
 C546 C 0.43124 0.30111 0.54357
 C547 C 0.45626 0.34746 0.53991
 C548 C 0.43484 0.39175 0.51421
 C549 C 0.38173 0.38900 0.50683
 C550 C 0.35585 0.34254 0.50991
 H551 H 0.35583 0.12594 0.58934
 H552 H 0.31951 0.04036 0.58364
 H553 H 0.24665 0.08851 0.44118
 H554 H 0.28300 0.17303 0.44689
 H555 H 0.45093 0.26776 0.56025
 H556 H 0.49245 0.34749 0.55908
 H557 H 0.35918 0.42186 0.49746
 H558 H 0.31597 0.34162 0.49959
   
