data_POSCAR
  _audit_creation_date              2014-09-24
  _audit_creation_method            'ToBaCCo'
  _symmetry_space_group_name_H-M    'P1'
  _symmetry_Int_Tables_number       1
  _symmetry_cell_setting            triclinic
  loop_
  _symmetry_equiv_pos_as_xyz
 x,y,z
_cell_length_a 48.3883
_cell_length_b 49.2439
_cell_length_c 48.4043
_cell_angle_alpha 93.317600
_cell_angle_beta 91.880000
_cell_angle_gamma 91.474900
loop_
  _atom_site_label
  _atom_site_type_symbol
  _atom_site_fract_x
  _atom_site_fract_y
  _atom_site_fract_z
C1 C 0.21770 0.51824 1.03901
 H2 H 0.21729 0.53153 1.02197
 C3 C 0.19853 0.52133 1.05978
 H4 H 0.18325 0.53675 1.05755
 C5 C 0.23709 0.48081 1.06032
 H6 H 0.25198 0.46486 1.06033
 C7 C 0.21831 0.48315 1.08161
 H8 H 0.22029 0.46935 1.09808
 N9 N 0.23663 0.49841 1.03972
 C10 C 0.30628 0.52524 0.99244
 H11 H 0.30820 0.50753 0.97840
 C12 C 0.32564 0.54676 0.99238
 H13 H 0.34261 0.54516 0.97841
 C14 C 0.28246 0.54792 1.02858
 H15 H 0.26583 0.54820 1.04291
 C16 C 0.30112 0.57007 1.02895
 H17 H 0.29813 0.58737 1.04326
 Zn18 Zn 0.26073 0.49550 1.00971
 N19 N 0.28522 0.52617 1.01034
 C20 C 0.24046 0.51272 0.95797
 N21 N 0.23815 0.49357 0.97698
 C22 C 0.21816 0.47358 0.97420
 C23 C 0.19944 0.47229 0.95158
 C24 C 0.22203 0.51229 0.93511
 C25 C 0.30067 0.46259 1.03327
 C26 C 0.31823 0.44059 1.03462
 C27 C 0.29861 0.42254 0.99060
 C28 C 0.28128 0.44474 0.99020
 N29 N 0.28254 0.46418 1.01138
 H30 H 0.25618 0.52870 0.96081
 H31 H 0.21650 0.45892 0.98991
 H32 H 0.18329 0.45658 0.95005
 H33 H 0.22401 0.52778 0.92025
 H34 H 0.30170 0.47865 1.04953
 H35 H 0.33281 0.43984 1.05200
 H36 H 0.29736 0.40728 0.97354
 H37 H 0.26725 0.44665 0.97266
 C38 C 0.32322 0.56967 1.01078
 C39 C 0.19840 0.50368 1.08179
 C40 C 0.31747 0.42032 1.01297
 C41 C 0.20105 0.49200 0.93183
 C42 C 0.79173 0.51697 -0.03258
 H43 H 0.79207 0.53338 -0.01670
 C44 C 0.81009 0.51769 -0.05416
 H45 H 0.82459 0.53476 -0.05469
 C46 C 0.77363 0.47390 -0.04990
 H47 H 0.75997 0.45652 -0.04769
 C48 C 0.79172 0.47375 -0.07181
 H49 H 0.79135 0.45644 -0.08668
 N50 N 0.77414 0.49524 -0.03073
 C51 C 0.71558 0.52778 0.02845
 H52 H 0.71841 0.51405 0.04490
 C53 C 0.69673 0.54865 0.03122
 H54 H 0.68590 0.55123 0.05036
 C55 C 0.72645 0.54072 -0.01637
 H56 H 0.73758 0.53710 -0.03516
 C57 C 0.70726 0.56142 -0.01477
 H58 H 0.70389 0.57335 -0.03259
 Zn59 Zn 0.75368 0.49435 0.00178
 N60 N 0.73026 0.52443 0.00510
 C61 C 0.78101 0.51295 0.05339
 N62 N 0.78005 0.49429 0.03151
 C63 C 0.79892 0.47439 0.02930
 C64 C 0.81950 0.47230 0.04982
 C65 C 0.80106 0.51136 0.07467
 C66 C 0.71113 0.45847 -0.01924
 C67 C 0.69218 0.43661 -0.01900
 C68 C 0.71368 0.42406 0.02402
 C69 C 0.73241 0.44594 0.02280
 N70 N 0.73074 0.46269 0.00145
 H71 H 0.76631 0.52905 0.05450
 H72 H 0.79795 0.46011 0.01142
 H73 H 0.83453 0.45653 0.04726
 H74 H 0.80097 0.52595 0.09227
 H75 H 0.70991 0.47245 -0.03565
 H76 H 0.67633 0.43383 -0.03531
 H77 H 0.71501 0.41114 0.04135
 H78 H 0.74770 0.44999 0.03938
 C79 C 0.69200 0.56568 0.00929
 C80 C 0.81056 0.49567 -0.07388
 C81 C 0.69311 0.41935 0.00306
 C82 C 0.82066 0.49076 0.07309
 C83 C -0.01893 0.29611 0.46460
 H84 H -0.03691 0.29693 0.47731
 C85 C -0.01664 0.31328 0.44278
 H86 H -0.03304 0.32740 0.43956
 C87 C 0.02493 0.27806 0.45564
 H88 H 0.04133 0.26468 0.46105
 C89 C 0.02833 0.29517 0.43393
 H90 H 0.04700 0.29347 0.42234
 N91 N 0.00165 0.27894 0.47057
 C92 C -0.03956 0.22322 0.52407
 H93 H -0.02568 0.22535 0.54209
 C94 C -0.06265 0.20567 0.52400
 H95 H -0.06671 0.19514 0.54251
 C96 C -0.05071 0.23453 0.47822
 H97 H -0.04555 0.24525 0.46016
 C98 C -0.07371 0.21667 0.47701
 H99 H -0.08590 0.21394 0.45786
 Zn100 Zn -0.00112 0.25899 0.50265
 N101 N -0.03420 0.23749 0.50155
 C102 C -0.01907 0.28667 0.55251
 N103 N 0.00074 0.28484 0.53324
 C104 C 0.02286 0.30248 0.53437
 C105 C 0.02591 0.32281 0.55561
 C106 C -0.01659 0.30644 0.57443
 C107 C 0.03033 0.21545 0.48406
 C108 C 0.05096 0.19622 0.48491
 C109 C 0.06688 0.21660 0.52941
 C110 C 0.04607 0.23563 0.52759
 N111 N 0.02839 0.23475 0.50509
 H112 H -0.03688 0.27297 0.55096
 H113 H 0.03807 0.30086 0.51850
 H114 H 0.04339 0.33697 0.55558
 H115 H -0.03225 0.30703 0.58988
 H116 H 0.01567 0.21496 0.46666
 H117 H 0.05203 0.18083 0.46809
 H118 H 0.08082 0.21754 0.54742
 H119 H 0.04382 0.25082 0.54433
 C120 C -0.07994 0.20180 0.50008
 C121 C 0.00755 0.31354 0.42721
 C122 C 0.06950 0.19658 0.50785
 C123 C 0.00612 0.32497 0.57618
 C124 C 0.96844 0.71549 0.54289
 H125 H 0.95355 0.71349 0.52568
 C126 C 0.96674 0.69792 0.56437
 H127 H 0.95058 0.68224 0.56323
 C128 C 1.00849 0.73747 0.56408
 H129 H 1.02505 0.75254 0.56360
 C130 C 1.00736 0.72051 0.58623
 H131 H 1.02279 0.72327 0.60293
 N132 N 0.98909 0.73471 0.54305
 C133 C 0.95486 0.79207 0.48696
 H134 H 0.96909 0.79011 0.47022
 C135 C 0.93278 0.80963 0.48517
 H136 H 0.92989 0.82051 0.46655
 C137 C 0.94148 0.77975 0.53127
 H138 H 0.94530 0.76844 0.54943
 C139 C 0.91948 0.79755 0.53063
 H140 H 0.90674 0.79977 0.54853
 Zn141 Zn 0.99000 0.75538 0.51138
 N142 N 0.95862 0.77736 0.50962
 C143 C 0.96879 0.72741 0.46168
 N144 N 0.99033 0.72998 0.48050
 C145 C 1.01196 0.71291 0.47912
 C146 C 1.01269 0.69246 0.45797
 C147 C 0.96862 0.70715 0.44026
 C148 C 1.02432 0.79828 0.53362
 C149 C 1.04625 0.81735 0.53460
 C150 C 1.06152 0.79699 0.49131
 C151 C 1.03945 0.77815 0.49129
 N152 N 1.02146 0.77906 0.51233
 H153 H 0.95136 0.74055 0.46358
 H154 H 1.02849 0.71499 0.49476
 H155 H 1.02985 0.67878 0.45750
 H156 H 0.95129 0.70536 0.42548
 H157 H 1.00930 0.79900 0.54970
 H158 H 1.04801 0.83273 0.55153
 H159 H 1.07563 0.79604 0.47439
 H160 H 1.03640 0.76325 0.47414
 C161 C 0.91485 0.81289 0.50735
 C162 C 0.98638 0.70021 0.58648
 C163 C 1.06507 0.81694 0.51314
 C164 C 0.99070 0.68926 0.43832
 C165 C 0.45415 -0.01000 0.28188
 H166 H 0.46863 -0.02634 0.28257
 C167 C 0.43253 -0.00873 0.30026
 H168 H 0.43049 -0.02419 0.31515
 C169 C 0.44017 0.03082 0.26253
 H170 H 0.44361 0.04650 0.24820
 C171 C 0.41844 0.03304 0.28075
 H172 H 0.40498 0.05022 0.27998
 N173 N 0.45757 0.00961 0.26354
 C174 C 0.51253 -0.03031 0.20523
 H175 H 0.53019 -0.01631 0.20711
 C176 C 0.51299 -0.05333 0.18702
 H177 H 0.53116 -0.05624 0.17487
 C178 C 0.46690 -0.04155 0.21748
 H179 H 0.44880 -0.03665 0.22907
 C180 C 0.46618 -0.06449 0.19907
 H181 H 0.44768 -0.07736 0.19791
 Zn182 Zn 0.48939 0.00822 0.24197
 N183 N 0.48980 -0.02495 0.22013
 C184 C 0.53735 -0.00920 0.27099
 N185 N 0.52013 0.01179 0.26734
 C186 C 0.52277 0.03519 0.28365
 C187 C 0.54378 0.03848 0.30410
 C188 C 0.55839 -0.00697 0.29155
 C189 C 0.46874 0.03444 0.19692
 C190 C 0.46674 0.05400 0.17728
 C191 C 0.50647 0.07779 0.19953
 C192 C 0.50799 0.05747 0.21849
 N193 N 0.48902 0.03653 0.21708
 H194 H 0.53425 -0.02808 0.25864
 H195 H 0.50829 0.05128 0.28091
 H196 H 0.54571 0.05754 0.31639
 H197 H 0.57120 -0.02431 0.29463
 H198 H 0.45415 0.01736 0.19602
 H199 H 0.45075 0.05144 0.16110
 H200 H 0.52136 0.09462 0.20156
 H201 H 0.52434 0.05854 0.23425
 C202 C 0.48937 -0.07077 0.18316
 C203 C 0.41460 0.01321 0.30009
 C204 C 0.48564 0.07623 0.17847
 C205 C 0.56184 0.01711 0.30855
 C206 C 0.52496 -0.04313 0.69433
 H207 H 0.50714 -0.05689 0.69180
 C208 C 0.54540 -0.04398 0.67462
 H209 H 0.54273 -0.05827 0.65685
 C210 C 0.54864 -0.00661 0.71970
 H211 H 0.54957 0.00845 0.73680
 C212 C 0.56994 -0.00723 0.70090
 H213 H 0.58736 0.00685 0.70463
 N214 N 0.52679 -0.02455 0.71623
 C215 C 0.47365 -0.05748 0.77788
 H216 H 0.45785 -0.04232 0.77843
 C217 C 0.47246 -0.07887 0.79550
 H218 H 0.45564 -0.08011 0.80963
 C219 C 0.51555 -0.07344 0.75966
 H220 H 0.53253 -0.07088 0.74600
 C221 C 0.51539 -0.09496 0.77729
 H222 H 0.53213 -0.10913 0.77685
 Zn223 Zn 0.49627 -0.02378 0.73986
 N224 N 0.49491 -0.05518 0.76041
 C225 C 0.44530 -0.04305 0.71404
 N226 N 0.46417 -0.02203 0.71669
 C227 C 0.46194 -0.00012 0.70098
 C228 C 0.44006 0.00124 0.68162
 C229 C 0.42317 -0.04259 0.69483
 C230 C 0.52153 0.00838 0.78355
 C231 C 0.52412 0.02935 0.80419
 C232 C 0.47914 0.04466 0.78990
 C233 C 0.47778 0.02381 0.76900
 N234 N 0.49890 0.00629 0.76612
 H235 H 0.44779 -0.06060 0.72617
 H236 H 0.47757 0.01604 0.70310
 H237 H 0.43900 0.01854 0.66883
 H238 H 0.40847 -0.05960 0.69282
 H239 H 0.53763 -0.00636 0.78144
 H240 H 0.54284 0.03096 0.81708
 H241 H 0.46160 0.05766 0.79229
 H242 H 0.45945 0.02116 0.75566
 C243 C 0.49369 -0.09773 0.79558
 C244 C 0.56837 -0.02582 0.67764
 C245 C 0.50262 0.04778 0.80788
 C246 C 0.42051 -0.02035 0.67813
 Si247 Si 0.24022 0.00767 0.48807
 Si248 Si 0.74723 0.00499 0.49645
 Si249 Si 0.49973 0.24227 0.98977
 Si250 Si 0.51385 0.74715 -0.00659
 Si251 Si 1.01238 0.49686 0.25702
 Si252 Si 0.00377 0.51850 0.75926
 C253 C 0.11456 0.14165 0.53516
 C254 C 0.12984 0.13345 0.51175
 C255 C 0.12577 0.14777 0.48740
 C256 C 0.10638 0.16845 0.48640
 C257 C 0.09091 0.17568 0.50950
 C258 C 0.09549 0.16239 0.53395
 C259 C 0.14089 0.14128 0.46405
 C260 C 0.15991 0.12069 0.46406
 C261 C 0.16433 0.10528 0.48745
 C262 C 0.14881 0.11157 0.51160
 C263 C 0.15228 0.09537 0.53455
 C264 C 0.17012 0.07375 0.53398
 C265 C 0.18554 0.06753 0.51078
 C266 C 0.18329 0.08340 0.48730
 C267 C 0.19999 0.07641 0.46456
 C268 C 0.21745 0.05429 0.46501
 C269 C 0.21905 0.03860 0.48809
 C270 C 0.20302 0.04522 0.51084
 H271 H 0.11680 0.13256 0.55477
 H272 H 0.10333 0.17904 0.46755
 H273 H 0.08378 0.16764 0.55210
 H274 H 0.13793 0.15224 0.44543
 H275 H 0.17044 0.11701 0.44502
 H276 H 0.14102 0.09844 0.55322
 H277 H 0.17179 0.06168 0.55197
 H278 H 0.20010 0.08749 0.44604
 H279 H 0.22925 0.04922 0.44693
 H280 H 0.20405 0.03281 0.52863
 C281 C 0.62640 0.60253 0.02775
 C282 C 0.62906 0.62695 0.01394
 C283 C 0.65275 0.63059 -0.00204
 C284 C 0.67349 0.61113 -0.00276
 C285 C 0.67062 0.58699 0.01113
 C286 C 0.64668 0.58292 0.02613
 C287 C 0.65548 0.65348 -0.01752
 C288 C 0.63468 0.67238 -0.01838
 C289 C 0.61066 0.66962 -0.00288
 C290 C 0.60863 0.64742 0.01481
 C291 C 0.58653 0.64669 0.03311
 C292 C 0.56638 0.66624 0.03323
 C293 C 0.56691 0.68675 0.01456
 C294 C 0.58877 0.68853 -0.00411
 C295 C 0.58728 0.70865 -0.02384
 C296 C 0.56516 0.72631 -0.02463
 C297 C 0.54429 0.72491 -0.00547
 C298 C 0.54534 0.70523 0.01416
 H299 H 0.60836 0.59745 0.03908
 H300 H 0.69187 0.61486 -0.01431
 H301 H 0.64311 0.56417 0.03622
 H302 H 0.67365 0.65654 -0.02961
 H303 H 0.63837 0.68947 -0.03083
 H304 H 0.58467 0.63158 0.04823
 H305 H 0.54985 0.66494 0.04773
 H306 H 0.60228 0.71054 -0.03964
 H307 H 0.56435 0.74075 -0.04059
 H308 H 0.52886 0.70381 0.02871
 C309 C 0.84632 -0.15306 0.52003
 C310 C 0.84950 -0.12830 0.50685
 C311 C 0.87413 -0.12406 0.49246
 C312 C 0.89524 -0.14307 0.49291
 C313 C 0.89210 -0.16725 0.50662
 C314 C 0.86720 -0.17215 0.51976
 C315 C 0.87775 -0.10078 0.47779
 C316 C 0.85730 -0.08161 0.47673
 C317 C 0.83260 -0.08454 0.49114
 C318 C 0.82910 -0.10773 0.50732
 C319 C 0.80586 -0.10910 0.52414
 C320 C 0.78663 -0.08862 0.52506
 C321 C 0.78920 -0.06644 0.50859
 C322 C 0.81174 -0.06449 0.49073
 C323 C 0.81245 -0.04245 0.47322
 C324 C 0.79244 -0.02259 0.47456
 C325 C 0.77113 -0.02397 0.49323
 C326 C 0.76949 -0.04598 0.51014
 H327 H 0.82770 -0.15860 0.53021
 H328 H 0.91438 -0.13866 0.48285
 H329 H 0.86362 -0.19098 0.52973
 H330 H 0.89659 -0.09740 0.46680
 H331 H 0.86199 -0.06410 0.46521
 H332 H 0.80247 -0.12533 0.53774
 H333 H 0.76946 -0.09025 0.53876
 H334 H 0.82797 -0.04009 0.45803
 H335 H 0.79393 -0.00574 0.46120
 H336 H 0.75320 -0.04714 0.52482
 C337 C 0.36067 0.36259 1.03744
 C338 C 0.37501 0.35444 1.01339
 C339 C 0.36998 0.36881 0.98924
 C340 C 0.35096 0.38984 0.98921
 C341 C 0.33694 0.39755 1.01314
 C342 C 0.34207 0.38383 1.03723
 C343 C 0.38407 0.36231 0.96522
 C344 C 0.40370 0.34228 0.96467
 C345 C 0.40982 0.32757 0.98819
 C346 C 0.39446 0.33297 1.01260
 C347 C 0.39889 0.31655 1.03524
 C348 C 0.41816 0.29612 1.03442
 C349 C 0.43425 0.29153 1.01133
 C350 C 0.43060 0.30740 0.98799
 C351 C 0.44851 0.30289 0.96572
 C352 C 0.46863 0.28317 0.96650
 C353 C 0.47135 0.26699 0.98911
 C354 C 0.45432 0.27137 1.01162
 H355 H 0.36370 0.35336 1.05690
 H356 H 0.34753 0.40074 0.97061
 H357 H 0.33148 0.38945 1.05601
 H358 H 0.38008 0.37304 0.94662
 H359 H 0.41336 0.33844 0.94516
 H360 H 0.38736 0.31865 1.05386
 H361 H 0.42075 0.28399 1.05227
 H362 H 0.44815 0.31477 0.94773
 H363 H 0.48238 0.28074 0.94936
 H364 H 0.45711 0.25969 1.02972
 C365 C 0.85068 0.16612 0.48104
 C366 C 0.85240 0.14175 0.49511
 C367 C 0.87639 0.13834 0.51202
 C368 C 0.89821 0.15774 0.51330
 C369 C 0.89648 0.18155 0.49884
 C370 C 0.87228 0.18563 0.48302
 C371 C 0.87870 0.11546 0.52747
 C372 C 0.85758 0.09585 0.52682
 C373 C 0.83346 0.09794 0.50995
 C374 C 0.83125 0.12075 0.49306
 C375 C 0.80852 0.12129 0.47405
 C376 C 0.78870 0.10026 0.47152
 C377 C 0.79013 0.07833 0.48844
 C378 C 0.81200 0.07735 0.50860
 C379 C 0.81149 0.05566 0.52655
 C380 C 0.79126 0.03499 0.52327
 C381 C 0.77092 0.03520 0.50218
 C382 C 0.77005 0.05710 0.48508
 H383 H 0.83268 0.17099 0.46880
 H384 H 0.91682 0.15389 0.52534
 H385 H 0.86982 0.20412 0.47226
 H386 H 0.89704 0.11270 0.54037
 H387 H 0.86133 0.07866 0.53907
 H388 H 0.80600 0.13727 0.45996
 H389 H 0.77201 0.10121 0.45612
 H390 H 0.82627 0.05415 0.54349
 H391 H 0.79189 0.01837 0.53699
 H392 H 0.75407 0.05749 0.46892
 C393 C 0.37137 0.62833 0.03725
 C394 C 0.38385 0.63636 0.01286
 C395 C 0.37617 0.62158 -0.01234
 C396 C 0.35607 0.60042 -0.01298
 C397 C 0.34384 0.59274 0.01138
 C398 C 0.35187 0.60688 0.03645
 C399 C 0.38872 0.62781 -0.03680
 C400 C 0.40948 0.64780 -0.03674
 C401 C 0.41810 0.66295 -0.01217
 C402 C 0.40411 0.65807 0.01273
 C403 C 0.41058 0.67526 0.03656
 C404 C 0.43078 0.69578 0.03643
 C405 C 0.44585 0.69961 0.01285
 C406 C 0.44003 0.68306 -0.01173
 C407 C 0.45709 0.68676 -0.03453
 C408 C 0.47863 0.70626 -0.03292
 C409 C 0.48347 0.72309 -0.00896
 C410 C 0.46713 0.71963 0.01392
 H411 H 0.37684 0.63761 0.05746
 H412 H 0.34996 0.58992 -0.03262
 H413 H 0.34351 0.60100 0.05577
 H414 H 0.38274 0.61677 -0.05620
 H415 H 0.41798 0.65138 -0.05654
 H416 H 0.39989 0.67378 0.05561
 H417 H 0.43498 0.70851 0.05521
 H418 H 0.45502 0.67427 -0.05354
 H419 H 0.49178 0.70800 -0.05045
 H420 H 0.47156 0.73178 0.03299
 C421 C 0.12442 -0.13485 0.53726
 C422 C 0.13022 -0.12121 0.51302
 C423 C 0.11381 -0.12849 0.48878
 C424 C 0.09306 -0.14895 0.48887
 C425 C 0.08768 -0.16219 0.51303
 C426 C 0.10346 -0.15489 0.53718
 C427 C 0.11795 -0.11520 0.46456
 C428 C 0.13763 -0.09429 0.46387
 C429 C 0.15439 -0.08602 0.48744
 C430 C 0.15132 -0.10036 0.51213
 C431 C 0.16961 -0.09354 0.53496
 C432 C 0.18971 -0.07302 0.53405
 C433 C 0.19216 -0.05809 0.51062
 C434 C 0.17436 -0.06409 0.48706
 C435 C 0.17698 -0.04744 0.46431
 C436 C 0.19677 -0.02629 0.46489
 C437 C 0.21475 -0.02122 0.48783
 C438 C 0.21222 -0.03696 0.51077
 H439 H 0.13530 -0.13022 0.55680
 H440 H 0.08056 -0.15412 0.47021
 H441 H 0.09965 -0.16486 0.55612
 H442 H 0.10561 -0.12085 0.44591
 H443 H 0.13954 -0.08533 0.44424
 H444 H 0.16931 -0.10407 0.55384
 H445 H 0.20335 -0.06861 0.55206
 H446 H 0.16369 -0.04974 0.44600
 H447 H 0.19801 -0.01376 0.44727
 H448 H 0.22545 -0.03248 0.52902
 C449 C 0.63708 0.37529 1.03179
 C450 C 0.62845 0.35792 1.00859
 C451 C 0.64298 0.36015 0.98380
 C452 C 0.66409 0.38007 0.98211
 C453 C 0.67170 0.39759 1.00507
 C454 C 0.65832 0.39471 1.02996
 C455 C 0.63628 0.34264 0.96077
 C456 C 0.61538 0.32287 0.96164
 C457 C 0.59974 0.32025 0.98552
 C458 C 0.60595 0.33852 1.00915
 C459 C 0.58895 0.33740 1.03224
 C460 C 0.56671 0.31910 1.03237
 C461 C 0.56080 0.30077 1.00985
 C462 C 0.57753 0.30054 0.98631
 C463 C 0.57110 0.28061 0.96454
 C464 C 0.54844 0.26259 0.96581
 C465 C 0.53163 0.26383 0.98870
 C466 C 0.53792 0.28283 1.01066
 H467 H 0.62809 0.37430 1.05177
 H468 H 0.67477 0.38188 0.96292
 H469 H 0.66392 0.40799 1.04801
 H470 H 0.64735 0.34420 0.94179
 H471 H 0.61143 0.31043 0.94283
 H472 H 0.59168 0.35105 1.05036
 H473 H 0.55395 0.31933 1.05039
 H474 H 0.58319 0.27829 0.94632
 H475 H 0.54384 0.24802 0.94857
 H476 H 0.52479 0.28373 1.02842
 C477 C 0.45617 0.12331 1.12607
 C478 C 0.48017 0.13571 1.11584
 C479 C 0.50606 0.12938 1.12807
 C480 C 0.50772 0.11009 1.14830
 C481 C 0.48379 0.09729 1.15759
 C482 C 0.45803 0.10458 1.14658
 C483 C 0.53025 0.14214 1.11993
 C484 C 0.52942 0.16126 1.09997
 C485 C 0.50427 0.16784 1.08664
 C486 C 0.47936 0.15418 1.09405
 C487 C 0.45468 0.15870 1.07880
 C488 C 0.45427 0.17599 1.05713
 C489 C 0.47817 0.19013 1.05028
 C490 C 0.50336 0.18691 1.06542
 C491 C 0.52663 0.20285 1.05851
 C492 C 0.52515 0.22013 1.03670
 C493 C 0.50052 0.22225 1.02120
 C494 C 0.47710 0.20724 1.02804
 H495 H 0.43557 0.12803 1.11907
 H496 H 0.52786 0.10471 1.15641
 H497 H 0.43906 0.09593 1.15399
 H498 H 0.55012 0.13738 1.12918
 H499 H 0.54912 0.16985 1.09474
 H500 H 0.43538 0.14833 1.08242
 H501 H 0.43496 0.17836 1.04563
 H502 H 0.54627 0.20260 1.06961
 H503 H 0.54366 0.23126 1.03159
 H504 H 0.45805 0.20870 1.01584
 C505 C -0.04139 0.65136 0.63740
 C506 C -0.01700 0.64064 0.64887
 C507 C 0.00870 0.65184 0.64114
 C508 C 0.00970 0.67141 0.62117
 C509 C -0.01467 0.68088 0.60900
 C510 C -0.04015 0.67110 0.61790
 C511 C 0.03331 0.64321 0.65310
 C512 C 0.03309 0.62367 0.67266
 C513 C 0.00812 0.61125 0.68046
 C514 C -0.01726 0.61928 0.66770
 C515 C -0.04193 0.60502 0.67336
 C516 C -0.04194 0.58386 0.69107
 C517 C -0.01758 0.57649 0.70446
 C518 C 0.00774 0.59044 0.69993
 C519 C 0.03159 0.58284 0.71511
 C520 C 0.03031 0.56185 0.73327
 C521 C 0.00535 0.54787 0.73693
 C522 C -0.01843 0.55503 0.72228
 H523 H -0.06178 0.64525 0.64333
 H524 H 0.02961 0.67871 0.61459
 H525 H -0.05936 0.67876 0.60978
 H526 H 0.05304 0.65172 0.64731
 H527 H 0.05305 0.61805 0.68061
 H528 H -0.06160 0.60907 0.66360
 H529 H -0.06133 0.57320 0.69441
 H530 H 0.05149 0.59287 0.71369
 H531 H 0.04907 0.55628 0.74407
 H532 H -0.03772 0.54392 0.72486
 C533 C 0.46931 0.84627 -0.15987
 C534 C 0.49298 0.84220 -0.14273
 C535 C 0.51717 0.85812 -0.14697
 C536 C 0.51755 0.87681 -0.16781
 C537 C 0.49382 0.88079 -0.18424
 C538 C 0.46978 0.86536 -0.18011
 C539 C 0.54076 0.85572 -0.13008
 C540 C 0.54073 0.83851 -0.10838
 C541 C 0.51710 0.82251 -0.10295
 C542 C 0.49327 0.82347 -0.12116
 C543 C 0.47065 0.80554 -0.11731
 C544 C 0.47091 0.78786 -0.09598
 C545 C 0.49338 0.78768 -0.07723
 C546 C 0.51665 0.80528 -0.08013
 C547 C 0.53821 0.80534 -0.05960
 C548 C 0.53697 0.78801 -0.03785
 C549 C 0.51458 0.76983 -0.03600
 C550 C 0.49260 0.77006 -0.05543
 H551 H 0.44985 0.83565 -0.15770
 H552 H 0.53608 0.88909 -0.17057
 H553 H 0.45117 0.86819 -0.19255
 H554 H 0.55939 0.86762 -0.13341
 H555 H 0.55988 0.83779 -0.09650
 H556 H 0.45250 0.80423 -0.13086
 H557 H 0.45312 0.77436 -0.09396
 H558 H 0.55601 0.81896 -0.05933
 H559 H 0.55370 0.78878 -0.02236
 H560 H 0.47461 0.75691 -0.05342
 C561 C 1.04159 0.36182 0.38104
 C562 C 1.01878 0.37313 0.36728
 C563 C 0.99209 0.36248 0.37238
 C564 C 0.98850 0.34274 0.39189
 C565 C 1.01127 0.33240 0.40640
 C566 C 1.03788 0.34189 0.40004
 C567 C 0.96899 0.37164 0.35807
 C568 C 0.97170 0.39130 0.33883
 C569 C 0.99772 0.40323 0.33362
 C570 C 1.02155 0.39451 0.34865
 C571 C 1.04720 0.40804 0.34526
 C572 C 1.04961 0.42919 0.32769
 C573 C 1.02680 0.43735 0.31228
 C574 C 1.00062 0.42416 0.31448
 C575 C 0.97844 0.43267 0.29747
 C576 C 0.98210 0.45381 0.27980
 C577 C 1.00785 0.46700 0.27836
 C578 C 1.03004 0.45889 0.29481
 H579 H 1.06269 0.36780 0.37754
 H580 H 0.96779 0.33489 0.39499
 H581 H 1.05620 0.33514 0.41073
 H582 H 0.94849 0.36350 0.36177
 H583 H 0.95273 0.39732 0.32898
 H584 H 1.06581 0.40338 0.35664
 H585 H 1.06965 0.43926 0.32613
 H586 H 0.95805 0.42336 0.29715
 H587 H 0.96447 0.46016 0.26771
 H588 H 1.04993 0.46943 0.29400
 C589 C 0.46311 0.87706 0.12860
 C590 C 0.48760 0.86439 0.12023
 C591 C 0.51251 0.87231 0.13501
 C592 C 0.51299 0.89352 0.15576
 C593 C 0.48866 0.90687 0.16318
 C594 C 0.46365 0.89768 0.14966
 C595 C 0.53694 0.85911 0.12896
 C596 C 0.53728 0.83821 0.10844
 C597 C 0.51323 0.83021 0.09240
 C598 C 0.48818 0.84413 0.09782
 C599 C 0.46484 0.83809 0.08003
 C600 C 0.46583 0.81907 0.05780
 C601 C 0.48976 0.80470 0.05283
 C602 C 0.51359 0.80942 0.07048
 C603 C 0.53680 0.79311 0.06529
 C604 C 0.53659 0.77390 0.04287
 C605 C 0.51338 0.77038 0.02499
 C606 C 0.49006 0.78578 0.03003
 H607 H 0.44305 0.87138 0.11943
 H608 H 0.53241 0.89891 0.16673
 H609 H 0.44432 0.90729 0.15413
 H610 H 0.55608 0.86497 0.14027
 H611 H 0.55709 0.82939 0.10494
 H612 H 0.44566 0.84853 0.08206
 H613 H 0.44757 0.81554 0.04436
 H614 H 0.55534 0.79449 0.07829
 H615 H 0.55488 0.76219 0.03927
 H616 H 0.47206 0.78300 0.01610
 C617 C 0.03821 0.37655 0.63012
 C618 C 0.01488 0.38976 0.64082
 C619 C -0.01163 0.37997 0.63092
 C620 C -0.01436 0.35906 0.60993
 C621 C 0.00901 0.34670 0.59894
 C622 C 0.03523 0.35540 0.60968
 C623 C -0.03536 0.39118 0.64188
 C624 C -0.03346 0.41175 0.66276
 C625 C -0.00757 0.42262 0.67298
 C626 C 0.01696 0.41214 0.66109
 C627 C 0.04265 0.42493 0.66918
 C628 C 0.04442 0.44692 0.68850
 C629 C 0.02087 0.45658 0.70116
 C630 C -0.00542 0.44419 0.69413
 C631 C -0.02845 0.45399 0.70864
 C632 C -0.02547 0.47562 0.72853
 C633 C 0.00041 0.48808 0.73472
 C634 C 0.02345 0.47874 0.72077
 H635 H 0.05904 0.38164 0.63753
 H636 H -0.03482 0.35276 0.60186
 H637 H 0.05368 0.34566 0.60246
 H638 H -0.05570 0.38382 0.63437
 H639 H -0.05282 0.41935 0.66983
 H640 H 0.06182 0.41900 0.66021
 H641 H 0.06455 0.45636 0.69373
 H642 H -0.04900 0.44522 0.70539
 H643 H -0.04368 0.48289 0.73871
 H644 H 0.04347 0.48872 0.72523
 C645 C 0.52142 0.08588 0.87682
 C646 C 0.50877 0.11120 0.87421
 C647 C 0.49281 0.11483 0.84970
 C648 C 0.49139 0.09452 0.82802
 C649 C 0.50449 0.06961 0.83068
 C650 C 0.51907 0.06549 0.85558
 C651 C 0.47822 0.13865 0.84698
 C652 C 0.47844 0.15869 0.86842
 C653 C 0.49430 0.15616 0.89310
 C654 C 0.51091 0.13274 0.89534
 C655 C 0.52967 0.13194 0.91823
 C656 C 0.53148 0.15288 0.93872
 C657 C 0.51402 0.17491 0.93779
 C658 C 0.49468 0.17660 0.91535
 C659 C 0.47608 0.19835 0.91651
 C660 C 0.47727 0.21786 0.93868
 C661 C 0.49736 0.21668 0.95994
 C662 C 0.51565 0.19519 0.95940
 H663 H 0.53245 0.08081 0.89546
 H664 H 0.48009 0.09831 0.80901
 H665 H 0.52840 0.04619 0.85904
 H666 H 0.46607 0.14165 0.82824
 H667 H 0.46671 0.17650 0.86466
 H668 H 0.54401 0.11575 0.92038
 H669 H 0.54643 0.15157 0.95574
 H670 H 0.45977 0.20029 0.90110
 H671 H 0.46226 0.23374 0.93911
 H672 H 0.53090 0.19396 0.97618
 C673 C 0.96541 0.62936 0.39084
 C674 C 0.98949 0.62198 0.37662
 C675 C 1.01392 0.63807 0.38258
 C676 C 1.01417 0.66000 0.40252
 C677 C 0.99024 0.66665 0.41668
 C678 C 0.96590 0.65126 0.41047
 C679 C 1.03802 0.63222 0.36869
 C680 C 1.03857 0.61071 0.34888
 C681 C 1.01497 0.59381 0.34234
 C682 C 0.99012 0.59931 0.35675
 C683 C 0.96683 0.58175 0.35109
 C684 C 0.96755 0.55983 0.33187
 C685 C 0.99132 0.55453 0.31730
 C686 C 1.01540 0.57142 0.32208
 C687 C 1.03882 0.56506 0.30626
 C688 C 1.03815 0.54293 0.28677
 C689 C 1.01424 0.52660 0.28240
 C690 C 0.99105 0.53228 0.29788
 H691 H 0.94576 0.61879 0.38732
 H692 H 1.03302 0.67209 0.40688
 H693 H 0.94715 0.65585 0.42124
 H694 H 1.05675 0.64447 0.37315
 H695 H 1.05810 0.60769 0.33928
 H696 H 0.94763 0.58409 0.36145
 H697 H 0.94915 0.54689 0.32833
 H698 H 1.05794 0.57678 0.30826
 H699 H 1.05648 0.53856 0.27529
 H700 H 0.97256 0.51942 0.29458
 C701 C 1.14585 0.53378 0.12900
 C702 C 1.13728 0.51135 0.14387
 C703 C 1.15064 0.48644 0.13852
 C704 C 1.17088 0.48407 0.11838
 C705 C 1.17867 0.50631 0.10296
 C706 C 1.16596 0.53126 0.10909
 C707 C 1.14355 0.46378 0.15303
 C708 C 1.12331 0.46512 0.17267
 C709 C 1.10888 0.48925 0.17842
 C710 C 1.11590 0.51274 0.16368
 C711 C 1.10093 0.53666 0.16880
 C712 C 1.07978 0.53767 0.18746
 C713 C 1.07273 0.51505 0.20198
 C714 C 1.08731 0.49057 0.19803
 C715 C 1.07930 0.46835 0.21366
 C716 C 1.05748 0.47036 0.23180
 C717 C 1.04318 0.49451 0.23519
 C718 C 1.05080 0.51673 0.22021
 H719 H 1.13770 0.55379 0.13238
 H720 H 1.17940 0.46425 0.11403
 H721 H 1.17204 0.54954 0.09924
 H722 H 1.15376 0.44466 0.14912
 H723 H 1.11919 0.44658 0.18271
 H724 H 1.10463 0.55503 0.15833
 H725 H 1.06869 0.55641 0.19043
 H726 H 1.08922 0.44904 0.21227
 H727 H 1.05146 0.45267 0.24264
 H728 H 1.03939 0.53535 0.22254
 C729 C 0.61558 -0.04948 0.62011
 C730 C 0.62956 -0.02511 0.61390
 C731 C 0.62424 -0.00122 0.63039
 C732 C 0.60425 -0.00154 0.65076
 C733 C 0.58999 -0.02573 0.65628
 C734 C 0.59637 -0.04974 0.64102
 C735 C 0.63881 0.02296 0.62644
 C736 C 0.65899 0.02393 0.60677
 C737 C 0.66469 0.00086 0.58942
 C738 C 0.64880 -0.02368 0.59215
 C739 C 0.65195 -0.04561 0.57248
 C740 C 0.67029 -0.04378 0.55111
 C741 C 0.68700 -0.02053 0.54912
 C742 C 0.68509 0.00181 0.56875
 C743 C 0.70384 0.02413 0.56694
 C744 C 0.72284 0.02456 0.54590
 C745 C 0.72373 0.00295 0.52597
 C746 C 0.70561 -0.01943 0.52750
 H747 H 0.61960 -0.06884 0.60969
 H748 H 0.59960 0.01735 0.66200
 H749 H 0.58668 -0.06901 0.64535
 H750 H 0.63478 0.04134 0.63892
 H751 H 0.66906 0.04347 0.60491
 H752 H 0.63966 -0.06417 0.57240
 H753 H 0.67160 -0.06091 0.53615
 H754 H 0.70473 0.04134 0.58176
 H755 H 0.73652 0.04220 0.54506
 H756 H 0.70607 -0.03608 0.51186
 C757 C -0.13245 0.47035 0.88031
 C758 C -0.12406 0.49404 0.86717
 C759 C -0.13907 0.51801 0.87266
 C760 C -0.16074 0.51826 0.89129
 C761 C -0.16810 0.49484 0.90476
 C762 C -0.15400 0.47087 0.89877
 C763 C -0.13222 0.54175 0.85980
 C764 C -0.11056 0.54248 0.84175
 C765 C -0.09450 0.51941 0.83599
 C766 C -0.10129 0.49481 0.84901
 C767 C -0.08483 0.47192 0.84381
 C768 C -0.06259 0.47288 0.82653
 C769 C -0.05585 0.49653 0.81353
 C770 C -0.07169 0.52016 0.81784
 C771 C -0.06381 0.54354 0.80385
 C772 C -0.04138 0.54321 0.78639
 C773 C -0.02621 0.51969 0.78223
 C774 C -0.03322 0.49660 0.79616
 H775 H -0.12276 0.45106 0.87702
 H776 H -0.17186 0.53682 0.89543
 H777 H -0.15911 0.45251 0.90902
 H778 H -0.14371 0.56009 0.86383
 H779 H -0.10676 0.56171 0.83288
 H780 H -0.08829 0.45284 0.85306
 H781 H -0.05050 0.45480 0.82329
 H782 H -0.07447 0.56243 0.80584
 H783 H -0.03579 0.56155 0.77638
 H784 H -0.02116 0.47846 0.79319
 C785 C 0.37062 0.04367 0.35655
 C786 C 0.35432 0.02104 0.36388
 C787 C 0.35709 -0.00395 0.34825
 C788 C 0.37646 -0.00630 0.32731
 C789 C 0.39302 0.01610 0.32102
 C790 C 0.38958 0.04114 0.33551
 C791 C 0.34070 -0.02656 0.35371
 C792 C 0.32153 -0.02508 0.37443
 C793 C 0.31837 -0.00092 0.39108
 C794 C 0.33548 0.02236 0.38610
 C795 C 0.33373 0.04592 0.40397
 C796 C 0.31583 0.04688 0.42578
 C797 C 0.29856 0.02468 0.43047
 C798 C 0.29915 0.00058 0.41298
 C799 C 0.28045 -0.02100 0.41830
 C800 C 0.26255 -0.01878 0.44033
 C801 C 0.26258 0.00491 0.45761
 C802 C 0.28075 0.02645 0.45277
 H803 H 0.36918 0.06368 0.36651
 H804 H 0.37866 -0.02564 0.31580
 H805 H 0.40213 0.05877 0.33100
 H806 H 0.34269 -0.04570 0.34179
 H807 H 0.30996 -0.04361 0.37731
 H808 H 0.34650 0.06390 0.40214
 H809 H 0.31548 0.06531 0.43914
 H810 H 0.27895 -0.03981 0.40580
 H811 H 0.24899 -0.03591 0.44400
 H812 H 0.28093 0.04475 0.46638
 C813 C 0.15061 0.46775 0.87341
 C814 C 0.13786 0.49213 0.86638
 C815 C 0.14697 0.51661 0.88120
 C816 C 0.16800 0.51646 0.90187
 C817 C 0.18011 0.49211 0.90874
 C818 C 0.17127 0.46783 0.89428
 C819 C 0.13483 0.54113 0.87565
 C820 C 0.11320 0.54198 0.85624
 C821 C 0.10288 0.51819 0.84128
 C822 C 0.11608 0.49302 0.84568
 C823 C 0.10709 0.46964 0.82919
 C824 C 0.08549 0.47056 0.80969
 C825 C 0.07162 0.49462 0.80605
 C826 C 0.07991 0.51876 0.82193
 C827 C 0.06431 0.54232 0.81823
 C828 C 0.04193 0.54187 0.79930
 C829 C 0.03455 0.51824 0.78319
 C830 C 0.04921 0.49456 0.78681
 H831 H 0.14477 0.44816 0.86365
 H832 H 0.17436 0.53530 0.91330
 H833 H 0.18039 0.44875 0.89914
 H834 H 0.14193 0.55994 0.88670
 H835 H 0.10523 0.56183 0.85318
 H836 H 0.11659 0.45022 0.83057
 H837 H 0.07935 0.45208 0.79752
 H838 H 0.06834 0.56127 0.83007
 H839 H 0.03023 0.56017 0.79731
 H840 H 0.04281 0.47587 0.77520
 C841 C 0.59795 0.03613 0.37815
 C842 C 0.62373 0.02341 0.37581
 C843 C 0.62861 0.00819 0.35076
 C844 C 0.60882 0.00683 0.32877
 C845 C 0.58335 0.01958 0.33141
 C846 C 0.57818 0.03407 0.35643
 C847 C 0.65309 -0.00587 0.34785
 C848 C 0.67248 -0.00606 0.36964
 C849 C 0.66848 0.00852 0.39511
 C850 C 0.64442 0.02465 0.39770
 C851 C 0.64203 0.04172 0.42192
 C852 C 0.66175 0.04209 0.44344
 C853 C 0.68425 0.02502 0.44205
 C854 C 0.68787 0.00776 0.41802
 C855 C 0.71029 -0.01019 0.41834
 C856 C 0.72824 -0.01075 0.44147
 C857 C 0.72477 0.00678 0.46475
 C858 C 0.70292 0.02477 0.46486
 H859 H 0.59197 0.04703 0.39686
 H860 H 0.61333 -0.00431 0.30954
 H861 H 0.55844 0.04342 0.35961
 H862 H 0.65710 -0.01732 0.32866
 H863 H 0.69081 -0.01740 0.36562
 H864 H 0.62535 0.05559 0.42466
 H865 H 0.65904 0.05554 0.46163
 H866 H 0.71395 -0.02475 0.40147
 H867 H 0.74462 -0.02527 0.44114
 H868 H 0.69998 0.03808 0.48311
 C869 C 0.87243 0.46049 0.12238
 C870 C 0.88538 0.48379 0.13617
 C871 C 0.87528 0.50958 0.12994
 C872 C 0.85432 0.51177 0.10946
 C873 C 0.84232 0.48849 0.09534
 C874 C 0.85129 0.46288 0.10245
 C875 C 0.88621 0.53311 0.14406
 C876 C 0.90677 0.53168 0.16457
 C877 C 0.91791 0.50655 0.17123
 C878 C 0.90777 0.48234 0.15603
 C879 C 0.92086 0.45761 0.16060
 C880 C 0.94273 0.45641 0.17972
 C881 C 0.95197 0.47956 0.19560
 C882 C 0.93939 0.50489 0.19206
 C883 C 0.94882 0.52745 0.20967
 C884 C 0.97019 0.52494 0.22935
 C885 C 0.98278 0.50000 0.23215
 C886 C 0.97386 0.47748 0.21504
 H887 H 0.87769 0.44006 0.12693
 H888 H 0.84771 0.53175 0.10424
 H889 H 0.84176 0.44445 0.09274
 H890 H 0.87861 0.55291 0.13936
 H891 H 0.91414 0.55086 0.17426
 H892 H 0.91528 0.43884 0.14901
 H893 H 0.95237 0.43704 0.18225
 H894 H 0.93988 0.54722 0.20910
 H895 H 0.97709 0.54275 0.24211
 H896 H 0.98384 0.45819 0.21706
 C897 C 0.37239 -0.04378 0.61770
 C898 C 0.35795 -0.01992 0.61215
 C899 C 0.36376 0.00364 0.62986
 C900 C 0.38389 0.00333 0.65145
 C901 C 0.39838 -0.02032 0.65616
 C902 C 0.39221 -0.04386 0.63928
 C903 C 0.34959 0.02746 0.62591
 C904 C 0.32975 0.02862 0.60467
 C905 C 0.32347 0.00596 0.58610
 C906 C 0.33807 -0.01862 0.58969
 C907 C 0.33268 -0.04094 0.57044
 C908 C 0.31368 -0.03947 0.54855
 C909 C 0.29902 -0.01590 0.54500
 C910 C 0.30338 0.00712 0.56378
 C911 C 0.28743 0.03034 0.55925
 C912 C 0.26837 0.03056 0.53693
 C913 C 0.26451 0.00776 0.51859
 C914 C 0.28002 -0.01528 0.52255
 H915 H 0.36894 -0.06281 0.60587
 H916 H 0.38822 0.02155 0.66472
 H917 H 0.40321 -0.06238 0.64238
 H918 H 0.35390 0.04551 0.63943
 H919 H 0.31998 0.04789 0.60314
 H920 H 0.34316 -0.05989 0.57133
 H921 H 0.31043 -0.05709 0.53420
 H922 H 0.28905 0.04866 0.57252
 H923 H 0.25692 0.04880 0.53393
 H924 H 0.27717 -0.03289 0.50812
   
