data_POSCAR
  _audit_creation_date              2014-09-24
  _audit_creation_method            'ToBaCCo'
  _symmetry_space_group_name_H-M    'P1'
  _symmetry_Int_Tables_number       1
  _symmetry_cell_setting            triclinic
  loop_
  _symmetry_equiv_pos_as_xyz
 x,y,z
_cell_length_a 39.7145
_cell_length_b 39.7779
_cell_length_c 38.7087
_cell_angle_alpha 89.974900
_cell_angle_beta 89.987600
_cell_angle_gamma 86.305800
loop_
  _atom_site_label
  _atom_site_type_symbol
  _atom_site_fract_x
  _atom_site_fract_y
  _atom_site_fract_z
O1 O -0.03757 0.27251 0.03236
 O2 O 0.03061 0.27308 -0.03236
 O3 O -0.03519 0.27401 -0.03499
 O4 O 0.02753 0.27314 0.03495
 O5 O 0.03270 0.21757 0.03276
 O6 O -0.03285 0.21847 -0.03475
 O7 O 0.03250 0.21762 -0.03436
 O8 O -0.03311 0.21696 0.03260
 Cu9 Cu -0.00402 0.27876 -0.00002
 Cu10 Cu 0.00012 0.21209 -0.00094
 C11 C -0.04673 0.24458 0.04384
 C12 C 0.04309 0.24536 -0.04471
 C13 C -0.04497 0.24645 -0.04670
 C14 C 0.04102 0.24525 0.04559
 O15 O 0.46772 0.77656 0.53398
 O16 O 0.53231 0.78574 0.46690
 O17 O 0.46810 0.77689 0.46680
 O18 O 0.53192 0.78572 0.53458
 O19 O 0.54355 0.73068 0.53397
 O20 O 0.47939 0.72186 0.46650
 O21 O 0.54399 0.73070 0.46738
 O22 O 0.47899 0.72153 0.53389
 Cu23 Cu 0.49893 0.78676 0.50059
 Cu24 Cu 0.51250 0.72065 0.50044
 C25 C 0.46224 0.74745 0.54537
 C26 C 0.54926 0.75977 0.45583
 C27 C 0.46277 0.74790 0.45506
 C28 C 0.54875 0.75970 0.54569
 O29 O 1.03872 0.71959 0.03722
 O30 O 0.97631 0.71811 -0.03311
 O31 O 1.04175 0.71612 -0.02986
 O32 O 0.97289 0.72058 0.03377
 O33 O 0.97161 0.77613 0.03241
 O34 O 1.03929 0.77154 -0.03300
 O35 O 0.97356 0.77364 -0.03505
 O36 O 1.03696 0.77499 0.03409
 Cu37 Cu 1.00766 0.71305 0.00232
 Cu38 Cu 1.00511 0.77964 -0.00067
 C39 C 1.04872 0.74759 0.04764
 C40 C 0.96415 0.74565 -0.04602
 C41 C 1.05227 0.74298 -0.04256
 C42 C 0.96058 0.74907 0.04408
 O43 O 0.47226 0.22213 0.46616
 O44 O 0.53600 0.23199 0.53367
 O45 O 0.47171 0.22253 0.53357
 O46 O 0.53644 0.23226 0.46685
 O47 O 0.52426 0.28719 0.46636
 O48 O 0.45965 0.27745 0.53329
 O49 O 0.52365 0.28691 0.53413
 O50 O 0.46027 0.27706 0.46592
 Cu51 Cu 0.50522 0.22172 0.50006
 Cu52 Cu 0.49081 0.28768 0.49989
 C53 C 0.45544 0.24786 0.45435
 C54 C 0.54062 0.26108 0.54553
 C55 C 0.45470 0.24833 0.54499
 C56 C 0.54137 0.26137 0.45517
 O57 O 0.71739 0.04484 -0.03744
 O58 O 0.71751 -0.02158 0.02896
 O59 O 0.71342 0.04401 0.02982
 O60 O 0.72113 -0.02054 -0.03833
 O61 O 0.77663 -0.02223 -0.03345
 O62 O 0.76893 0.04508 0.03174
 O63 O 0.77273 -0.02037 0.03354
 O64 O 0.77297 0.04394 -0.03447
 Cu65 Cu 0.71177 0.01167 -0.00460
 Cu66 Cu 0.77841 0.01143 -0.00044
 C67 C 0.74520 0.05587 -0.04705
 C68 C 0.74518 -0.03217 0.04291
 C69 C 0.73986 0.05594 0.04197
 C70 C 0.75020 -0.03272 -0.04714
 O71 O 0.22180 0.52336 0.46569
 O72 O 0.21796 0.45853 0.53337
 O73 O 0.21997 0.52341 0.53330
 O74 O 0.22021 0.45806 0.46578
 O75 O 0.27587 0.45271 0.46801
 O76 O 0.27569 0.51878 0.53458
 O77 O 0.27365 0.45312 0.53476
 O78 O 0.27747 0.51867 0.46789
 Cu79 Cu 0.21441 0.49135 0.49927
 Cu80 Cu 0.28126 0.48529 0.50140
 C81 C 0.25028 0.53234 0.45556
 C82 C 0.24516 0.44473 0.54553
 C83 C 0.24780 0.53228 0.54535
 C84 C 0.24811 0.44399 0.45568
 O85 O 0.27723 1.01945 0.03609
 O86 O 0.28193 0.95451 -0.03187
 O87 O 0.28118 1.02055 -0.03106
 O88 O 0.27797 0.95397 0.03491
 O89 O 0.22232 0.95799 0.03233
 O90 O 0.22578 1.02258 -0.03560
 O91 O 0.22634 0.95734 -0.03514
 O92 O 0.22178 1.02317 0.03184
 Cu93 Cu 0.28514 0.98687 0.00226
 Cu94 Cu 0.21851 0.99058 -0.00203
 C95 C 0.24867 1.03241 0.04577
 C96 C 0.25492 0.94464 -0.04491
 C97 C 0.25406 1.03289 -0.04484
 C98 C 0.24955 0.94489 0.04515
 O99 O 0.77713 0.54163 0.53262
 O100 O 0.77989 0.47608 0.46542
 O101 O 0.78145 0.54149 0.46547
 O102 O 0.77610 0.47645 0.53245
 O103 O 0.72056 0.48118 0.52888
 O104 O 0.72592 0.54632 0.46192
 O105 O 0.72436 0.48090 0.46180
 O106 O 0.72159 0.54633 0.52907
 Cu107 Cu 0.78422 0.50847 0.49927
 Cu108 Cu 0.71753 0.51417 0.49499
 C109 C 0.74887 0.55506 0.54250
 C110 C 0.75257 0.46716 0.45221
 C111 C 0.75464 0.55511 0.45228
 C112 C 0.74740 0.46775 0.54223
 C113 C 0.24640 0.21060 0.22656
 C114 C 0.22104 0.23740 0.22691
 C115 C 0.22208 0.26239 0.25246
 C116 C 0.24798 0.26178 0.27720
 C117 C 0.27422 0.23588 0.27563
 C118 C 0.27283 0.21051 0.25060
 H119 H 0.29251 0.19032 0.24993
 H120 H 0.20238 0.28254 0.25320
 C121 C 0.75403 0.78977 0.22427
 C122 C 0.78057 0.76438 0.22492
 C123 C 0.78157 0.74001 0.25103
 C124 C 0.75618 0.73981 0.27622
 C125 C 0.72944 0.76527 0.27575
 C126 C 0.72880 0.78986 0.24963
 H127 H 0.70885 0.80979 0.24945
 H128 H 0.80171 0.72025 0.25099
 C129 C 0.76824 0.25817 0.22063
 C130 C 0.73984 0.23832 0.21923
 C131 C 0.71422 0.24354 0.24404
 C132 C 0.71645 0.26753 0.27025
 C133 C 0.74456 0.28749 0.27147
 C134 C 0.77003 0.28264 0.24655
 H135 H 0.79169 0.29789 0.24753
 H136 H 0.69248 0.22841 0.24331
 C137 C 0.22581 0.74447 0.22964
 C138 C 0.25001 0.76894 0.22978
 C139 C 0.27571 0.76716 0.25453
 C140 C 0.27803 0.74127 0.27923
 C141 C 0.25339 0.71692 0.27965
 C142 C 0.22782 0.71872 0.25445
 H143 H 0.20863 0.70054 0.25474
 H144 H 0.29457 0.78570 0.25403
 C145 C 0.71627 0.27014 0.72947
 C146 C 0.74283 0.29203 0.72736
 C147 C 0.76978 0.28819 0.75073
 C148 C 0.77061 0.26318 0.77636
 C149 C 0.74328 0.24206 0.77927
 C150 C 0.71649 0.24586 0.75566
 H151 H 0.69576 0.22949 0.75735
 H152 H 0.79041 0.30467 0.74884
 C153 C 0.27935 0.73800 0.72319
 C154 C 0.25546 0.71298 0.72472
 C155 C 0.23169 0.71425 0.75169
 C156 C 0.23107 0.73961 0.77685
 C157 C 0.25441 0.76479 0.77479
 C158 C 0.27805 0.76390 0.74791
 H159 H 0.29654 0.78280 0.74710
 H160 H 0.21304 0.69554 0.75293
 C161 C 0.24788 0.26338 0.72516
 C162 C 0.27417 0.23742 0.72494
 C163 C 0.27423 0.21175 0.74988
 C164 C 0.24911 0.21152 0.77525
 C165 C 0.22313 0.23747 0.77580
 C166 C 0.22287 0.26305 0.75085
 H167 H 0.20253 0.28258 0.75109
 H168 H 0.29449 0.19211 0.75005
 C169 C 0.75347 0.73359 0.72457
 C170 C 0.72976 0.76178 0.72464
 C171 C 0.73211 0.78654 0.75020
 C172 C 0.75767 0.78423 0.77536
 C173 C 0.78199 0.75653 0.77442
 C174 C 0.77943 0.73159 0.74913
 H175 H 0.79774 0.71016 0.74874
 H176 H 0.71360 0.80780 0.75064
 C177 C 0.24380 0.10517 0.12493
 C178 C 0.21386 0.09512 0.10994
 C179 C 0.21545 0.07107 0.08365
 C180 C 0.24679 0.05688 0.07203
 C181 C 0.27615 0.06790 0.08761
 N182 N 0.27390 0.09146 0.11309
 C183 C 0.24375 0.13117 0.15234
 N184 N 0.27166 0.14896 0.15641
 C185 C 0.27332 0.17377 0.18038
 C186 C 0.24564 0.18210 0.20190
 C187 C 0.21706 0.16334 0.19909
 C188 C 0.21596 0.13793 0.17434
 H189 H 0.19204 0.06372 0.07243
 H190 H 0.30093 0.05794 0.07959
 H191 H 0.29589 0.18755 0.18203
 H192 H 0.19552 0.16861 0.21584
 H193 H 0.18943 0.10610 0.11775
 H194 H 0.19374 0.12367 0.17285
 C195 C 0.74633 0.62905 0.62277
 C196 C 0.71595 0.61965 0.60816
 C197 C 0.71675 0.59556 0.58193
 C198 C 0.74769 0.58088 0.57004
 C199 C 0.77748 0.59123 0.58506
 N200 N 0.77605 0.61475 0.61055
 C201 C 0.74726 0.65494 0.65014
 N202 N 0.77599 0.67144 0.65425
 C203 C 0.77873 0.69602 0.67825
 C204 C 0.75136 0.70544 0.69977
 C205 C 0.72189 0.68806 0.69691
 C206 C 0.71969 0.66284 0.67213
 H207 H 0.69316 0.58853 0.57089
 H208 H 0.80191 0.58071 0.57659
 H209 H 0.80196 0.70874 0.67999
 H210 H 0.70055 0.69424 0.71368
 H211 H 0.69180 0.63112 0.61621
 H212 H 0.69680 0.64959 0.67064
 C213 C 0.74733 0.89346 0.12032
 C214 C 0.71655 0.90363 0.10452
 C215 C 0.71567 0.92843 0.07893
 C216 C 0.74548 0.94298 0.06872
 C217 C 0.77577 0.93186 0.08518
 N218 N 0.77586 0.90789 0.11015
 C219 C 0.74933 0.86729 0.14759
 N220 N 0.72264 0.84816 0.15345
 C221 C 0.72352 0.82351 0.17784
 C222 C 0.75257 0.81688 0.19792
 C223 C 0.78007 0.83668 0.19282
 C224 C 0.77867 0.86168 0.16755
 H225 H 0.69165 0.93605 0.06712
 H226 H 0.79945 0.94219 0.07839
 H227 H 0.70174 0.80883 0.18125
 H228 H 0.80255 0.83292 0.20853
 H229 H 0.69335 0.89272 0.11198
 H230 H 0.80025 0.87661 0.16390
 C231 C 0.24202 0.36899 0.62323
 C232 C 0.21716 0.39569 0.62290
 C233 C 0.21781 0.42024 0.59715
 C234 C 0.24368 0.41863 0.57243
 C235 C 0.26815 0.39161 0.57379
 N236 N 0.26652 0.36755 0.59859
 C237 C 0.24209 0.34237 0.64970
 N238 N 0.24779 0.30959 0.64010
 C239 C 0.24893 0.28399 0.66345
 C240 C 0.24546 0.29086 0.69894
 C241 C 0.23931 0.32454 0.70924
 C242 C 0.23735 0.35031 0.68470
 H243 H 0.19848 0.44073 0.59685
 H244 H 0.28826 0.38940 0.55489
 H245 H 0.25273 0.25834 0.65429
 H246 H 0.23656 0.33095 0.73633
 H247 H 0.19722 0.39724 0.64203
 H248 H 0.23312 0.37622 0.69305
 C249 C 0.87624 0.24451 0.12129
 C250 C 0.88969 0.21375 0.10764
 C251 C 0.91488 0.21375 0.08246
 C252 C 0.92660 0.24423 0.07056
 C253 C 0.91233 0.27438 0.08463
 N254 N 0.88790 0.27374 0.10916
 C255 C 0.84905 0.24657 0.14765
 N256 N 0.83139 0.27671 0.15245
 C257 C 0.80592 0.28096 0.17579
 C258 C 0.79670 0.25377 0.19593
 C259 C 0.81494 0.22265 0.19218
 C260 C 0.84112 0.21889 0.16811
 H261 H 0.92499 0.18989 0.07214
 H262 H 0.92053 0.29848 0.07621
 H263 H 0.79251 0.30541 0.17821
 H264 H 0.80886 0.20131 0.20786
 H265 H 0.88065 0.18990 0.11558
 H266 H 0.85504 0.19473 0.16614
 C267 C 0.38616 0.73771 0.62248
 C268 C 0.40344 0.70864 0.60902
 C269 C 0.42838 0.71180 0.58401
 C270 C 0.43608 0.74374 0.57212
 C271 C 0.41808 0.77211 0.58601
 N272 N 0.39395 0.76841 0.61036
 C273 C 0.35908 0.73631 0.64873
 N274 N 0.33746 0.76399 0.65312
 C275 C 0.31201 0.76503 0.67661
 C276 C 0.30704 0.73697 0.69745
 C277 C 0.32928 0.70836 0.69398
 C278 C 0.35531 0.70788 0.66969
 H279 H 0.44141 0.68921 0.57378
 H280 H 0.42307 0.79724 0.57754
 H281 H 0.29545 0.78764 0.67880
 H282 H 0.32663 0.68653 0.71025
 H283 H 0.39753 0.68365 0.61698
 H284 H 0.37244 0.68571 0.66807
 C285 C 0.12107 0.74943 0.12692
 C286 C 0.10775 0.77981 0.11247
 C287 C 0.08375 0.77920 0.08625
 C288 C 0.07284 0.74838 0.07413
 C289 C 0.08706 0.71852 0.08918
 N290 N 0.11053 0.71982 0.11464
 C291 C 0.14704 0.74870 0.15436
 N292 N 0.16888 0.72102 0.15747
 C293 C 0.19382 0.71891 0.18160
 C294 C 0.19786 0.74580 0.20428
 C295 C 0.17498 0.77403 0.20238
 C296 C 0.14962 0.77566 0.17746
 H297 H 0.07392 0.80295 0.07542
 H298 H 0.07972 0.69411 0.08070
 H299 H 0.21085 0.69656 0.18267
 H300 H 0.17671 0.79476 0.22028
 H301 H 0.11621 0.80386 0.12067
 H302 H 0.13203 0.79758 0.17674
 C303 C 0.61332 0.26948 0.62563
 C304 C 0.58600 0.29359 0.62338
 C305 C 0.56248 0.29129 0.59679
 C306 C 0.56587 0.26471 0.57298
 C307 C 0.59358 0.24121 0.57614
 N308 N 0.61647 0.24433 0.60182
 C309 C 0.63908 0.27092 0.65288
 N310 N 0.67185 0.26210 0.64494
 C311 C 0.69681 0.26208 0.66892
 C312 C 0.68919 0.27062 0.70326
 C313 C 0.65558 0.27923 0.71226
 C314 C 0.63043 0.27977 0.68701
 H315 H 0.54140 0.30991 0.59516
 H316 H 0.59721 0.22054 0.55805
 H317 H 0.72254 0.25508 0.66129
 H318 H 0.64896 0.28574 0.73867
 H319 H 0.58314 0.31420 0.64162
 H320 H 0.60447 0.28618 0.69424
 C321 C 0.74389 0.13700 0.88106
 C322 C 0.76974 0.13351 0.90571
 C323 C 0.77056 0.10651 0.92871
 C324 C 0.74531 0.08347 0.92761
 C325 C 0.71988 0.08784 0.90256
 N326 N 0.72001 0.11397 0.87990
 C327 C 0.74269 0.16474 0.85588
 N328 N 0.73544 0.15830 0.82228
 C329 C 0.73508 0.18266 0.79763
 C330 C 0.74211 0.21573 0.80639
 C331 C 0.74815 0.22314 0.84119
 C332 C 0.74899 0.19761 0.86591
 H333 H 0.79054 0.10397 0.94775
 H334 H 0.70014 0.07038 0.90082
 H335 H 0.72999 0.17604 0.77110
 H336 H 0.75252 0.24857 0.84917
 H337 H 0.78935 0.15117 0.90680
 H338 H 0.75410 0.20353 0.89263
 C339 C 0.25306 0.61168 0.38174
 C340 C 0.27817 0.60817 0.40718
 C341 C 0.27770 0.58173 0.43085
 C342 C 0.25183 0.55939 0.42966
 C343 C 0.22714 0.56382 0.40385
 N344 N 0.22855 0.58931 0.38055
 C345 C 0.25291 0.63916 0.35622
 N346 N 0.24790 0.63233 0.32224
 C347 C 0.24800 0.65665 0.29753
 C348 C 0.25294 0.69019 0.30660
 C349 C 0.25678 0.69784 0.34174
 C350 C 0.25742 0.67234 0.36651
 H351 H 0.29712 0.57914 0.45050
 H352 H 0.20693 0.54690 0.40203
 H353 H 0.24461 0.64973 0.27078
 H354 H 0.25928 0.72354 0.35006
 H355 H 0.29812 0.62546 0.40845
 H356 H 0.26073 0.67853 0.39349
 C357 C 0.25873 0.86700 0.87886
 C358 C 0.28573 0.86904 0.90199
 C359 C 0.28476 0.89473 0.92658
 C360 C 0.25673 0.91799 0.92851
 C361 C 0.23031 0.91511 0.90484
 N362 N 0.23208 0.89021 0.88073
 C363 C 0.25869 0.84032 0.85242
 N364 N 0.24558 0.84778 0.82060
 C365 C 0.24447 0.82420 0.79527
 C366 C 0.25623 0.79084 0.80173
 C367 C 0.26952 0.78246 0.83432
 C368 C 0.27101 0.80720 0.85971
 H369 H 0.30564 0.89611 0.94440
 H370 H 0.20840 0.93276 0.90531
 H371 H 0.23394 0.83131 0.77032
 H372 H 0.27866 0.75682 0.84002
 H373 H 0.30753 0.85128 0.90077
 H374 H 0.28097 0.80037 0.88497
 C375 C 0.75463 0.38958 0.37560
 C376 C 0.78506 0.39902 0.39012
 C377 C 0.78441 0.42436 0.41506
 C378 C 0.75362 0.44047 0.42556
 C379 C 0.72384 0.43053 0.41019
 N380 N 0.72511 0.40580 0.38593
 C381 C 0.75348 0.36307 0.34885
 N382 N 0.72565 0.36271 0.32834
 C383 C 0.72232 0.33907 0.30348
 C384 C 0.74788 0.31360 0.29833
 C385 C 0.77682 0.31340 0.31901
 C386 C 0.77968 0.33792 0.34442
 H387 H 0.80802 0.43139 0.42605
 H388 H 0.69953 0.44232 0.41740
 H389 H 0.69982 0.34028 0.28764
 H390 H 0.79695 0.29395 0.31583
 H391 H 0.80920 0.38756 0.38206
 H392 H 0.80184 0.33656 0.36069
 C393 C 0.11903 0.24365 0.87936
 C394 C 0.10800 0.27443 0.89454
 C395 C 0.08264 0.27518 0.91962
 C396 C 0.06859 0.24522 0.93010
 C397 C 0.08080 0.21490 0.91444
 N398 N 0.10510 0.21496 0.88976
 C399 C 0.14538 0.24184 0.85227
 N400 N 0.16684 0.26705 0.84901
 C401 C 0.19175 0.26614 0.82483
 C402 C 0.19610 0.23868 0.80221
 C403 C 0.17372 0.21296 0.80446
 C404 C 0.14864 0.21422 0.82971
 H405 H 0.07424 0.29921 0.93087
 H406 H 0.07088 0.19111 0.92143
 H407 H 0.20828 0.28670 0.82339
 H408 H 0.17536 0.19216 0.78644
 H409 H 0.11851 0.29772 0.88679
 H410 H 0.13163 0.19406 0.83117
 C411 C 0.62468 0.76799 0.37849
 C412 C 0.59615 0.79073 0.37831
 C413 C 0.57172 0.78854 0.40403
 C414 C 0.57537 0.76328 0.42926
 C415 C 0.60428 0.74109 0.42853
 N416 N 0.62808 0.74416 0.40369
 C417 C 0.65101 0.76920 0.35182
 N418 N 0.68402 0.76478 0.36117
 C419 C 0.70943 0.76437 0.33762
 C420 C 0.70215 0.76724 0.30218
 C421 C 0.66823 0.77216 0.29211
 C422 C 0.64263 0.77338 0.31684
 H423 H 0.54972 0.80611 0.40383
 H424 H 0.60810 0.72152 0.44784
 H425 H 0.73526 0.76154 0.34657
 H426 H 0.66153 0.77442 0.26505
 H427 H 0.59301 0.81015 0.35875
 H428 H 0.61654 0.77649 0.30865
 C429 C 0.88893 0.74480 0.87491
 C430 C 0.90314 0.71416 0.88810
 C431 C 0.92783 0.71444 0.91371
 C432 C 0.93863 0.74508 0.92615
 C433 C 0.92437 0.77511 0.91174
 N434 N 0.90026 0.77421 0.88688
 C435 C 0.86204 0.74622 0.84833
 N436 N 0.85729 0.77447 0.82854
 C437 C 0.83247 0.77812 0.80439
 C438 C 0.81021 0.75258 0.79948
 C439 C 0.81472 0.72317 0.81932
 C440 C 0.84042 0.71993 0.84385
 H441 H 0.93844 0.69065 0.92377
 H442 H 0.93213 0.79931 0.92034
 H443 H 0.82987 0.80106 0.78931
 H444 H 0.79778 0.70308 0.81639
 H445 H 0.89572 0.69017 0.87863
 H446 H 0.84252 0.69748 0.85966
 C447 C 0.38162 0.23677 0.37530
 C448 C 0.39929 0.20803 0.38892
 C449 C 0.42338 0.21164 0.41468
 C450 C 0.43008 0.24376 0.42688
 C451 C 0.41225 0.27186 0.41220
 N452 N 0.38888 0.26771 0.38716
 C453 C 0.35532 0.23462 0.34840
 N454 N 0.34768 0.26201 0.32806
 C455 C 0.32282 0.26259 0.30390
 C456 C 0.30336 0.23467 0.29970
 C457 C 0.31108 0.20597 0.31989
 C458 C 0.33692 0.20584 0.34433
 H459 H 0.43675 0.18927 0.42501
 H460 H 0.41677 0.29712 0.42061
 H461 H 0.31774 0.28508 0.28852
 H462 H 0.29636 0.18409 0.31752
 H463 H 0.39507 0.18303 0.37959
 H464 H 0.34145 0.18387 0.36053
 C465 C 0.75650 0.88824 0.87854
 C466 C 0.78031 0.88815 0.90530
 C467 C 0.77882 0.91450 0.92916
 C468 C 0.75317 0.94032 0.92680
 C469 C 0.72989 0.93947 0.89963
 N470 N 0.73231 0.91396 0.87623
 C471 C 0.75727 0.86103 0.85278
 N472 N 0.75326 0.86892 0.81877
 C473 C 0.75359 0.84489 0.79380
 C474 C 0.75759 0.81061 0.80262
 C475 C 0.76058 0.80201 0.83772
 C476 C 0.76106 0.82715 0.86280
 H477 H 0.79718 0.91435 0.94985
 H478 H 0.70995 0.95917 0.89687
 H479 H 0.75093 0.85258 0.76706
 H480 H 0.76241 0.77590 0.84577
 H481 H 0.80001 0.86813 0.90746
 H482 H 0.76350 0.82022 0.88979
 C483 C 0.24749 0.36488 0.38142
 C484 C 0.27286 0.36415 0.40666
 C485 C 0.27341 0.39036 0.43055
 C486 C 0.24832 0.41681 0.42977
 C487 C 0.22330 0.41654 0.40419
 N488 N 0.22373 0.39111 0.38066
 C489 C 0.24655 0.33791 0.35544
 N490 N 0.24084 0.34605 0.32169
 C491 C 0.24080 0.32224 0.29648
 C492 C 0.24652 0.28796 0.30475
 C493 C 0.25085 0.27906 0.33965
 C494 C 0.25150 0.30394 0.36494
 H495 H 0.29306 0.38968 0.44998
 H496 H 0.20369 0.43669 0.40267
 H497 H 0.23697 0.33013 0.26993
 H498 H 0.25409 0.25287 0.34728
 H499 H 0.29231 0.34379 0.40755
 H500 H 0.25541 0.29675 0.39170
 C501 C 0.25654 0.10858 0.87937
 C502 C 0.28622 0.09835 0.89711
 C503 C 0.28561 0.07286 0.92189
 C504 C 0.25527 0.05804 0.92970
 C505 C 0.22610 0.06924 0.91125
 N506 N 0.22757 0.09356 0.88670
 C507 C 0.25607 0.13504 0.85263
 N508 N 0.23776 0.13125 0.82331
 C509 C 0.23576 0.15500 0.79799
 C510 C 0.25184 0.18506 0.80207
 C511 C 0.27091 0.18954 0.83193
 C512 C 0.27330 0.16444 0.85723
 H513 H 0.30883 0.06514 0.93520
 H514 H 0.20217 0.05849 0.91597
 H515 H 0.22128 0.15064 0.77492
 H516 H 0.28375 0.21248 0.83565
 H517 H 0.30975 0.10955 0.89146
 H518 H 0.28773 0.16832 0.88046
 C519 C 0.76045 0.63246 0.37611
 C520 C 0.79029 0.61685 0.38979
 C521 C 0.78839 0.59158 0.41457
 C522 C 0.75693 0.58153 0.42563
 C523 C 0.72773 0.59728 0.41084
 N524 N 0.73021 0.62194 0.38683
 C525 C 0.76074 0.65979 0.35016
 N526 N 0.73308 0.66600 0.32976
 C527 C 0.73111 0.69108 0.30585
 C528 C 0.75792 0.71200 0.30175
 C529 C 0.78670 0.70609 0.32232
 C530 C 0.78817 0.68019 0.34666
 H531 H 0.81158 0.57989 0.42502
 H532 H 0.70293 0.59018 0.41842
 H533 H 0.70861 0.69478 0.29016
 H534 H 0.80774 0.72196 0.31996
 H535 H 0.81490 0.62357 0.38127
 H536 H 0.81023 0.67691 0.36297
 C537 C 0.13002 0.73761 0.88332
 C538 C 0.11839 0.70781 0.89708
 C539 C 0.09273 0.70960 0.92173
 C540 C 0.07826 0.74099 0.93274
 C541 C 0.09046 0.77020 0.91803
 N542 N 0.11552 0.76776 0.89405
 C543 C 0.15681 0.73730 0.85664
 N544 N 0.15878 0.76479 0.83590
 C545 C 0.18235 0.76629 0.81056
 C546 C 0.20584 0.73900 0.80499
 C547 C 0.20459 0.71057 0.82618
 C548 C 0.18033 0.70967 0.85216
 H549 H 0.08411 0.68628 0.93191
 H550 H 0.08013 0.79501 0.92543
 H551 H 0.18238 0.78851 0.79444
 H552 H 0.22259 0.68920 0.82273
 H553 H 0.12830 0.68326 0.88854
 H554 H 0.18047 0.68773 0.86866
 C555 C 0.61509 0.27002 0.37594
 C556 C 0.58893 0.29527 0.37936
 C557 C 0.56513 0.29283 0.40566
 C558 C 0.56708 0.26508 0.42811
 C559 C 0.59377 0.24055 0.42394
 N560 N 0.61692 0.24372 0.39849
 C561 C 0.64076 0.27120 0.34850
 N562 N 0.67295 0.25916 0.35528
 C563 C 0.69759 0.25845 0.33088
 C564 C 0.69013 0.26959 0.29726
 C565 C 0.65712 0.28169 0.28946
 C566 C 0.63238 0.28288 0.31514
 H567 H 0.54491 0.31231 0.40807
 H568 H 0.59634 0.21894 0.44097
 H569 H 0.72284 0.24869 0.33752
 H570 H 0.65062 0.29021 0.26359
 H571 H 0.58712 0.31680 0.36220
 H572 H 0.60684 0.29187 0.30872
 C573 C 0.88029 0.24894 0.87346
 C574 C 0.89275 0.21779 0.88706
 C575 C 0.91726 0.21695 0.91294
 C576 C 0.92931 0.24698 0.92558
 C577 C 0.91611 0.27756 0.91144
 N578 N 0.89226 0.27774 0.88626
 C579 C 0.85346 0.25174 0.84677
 N580 N 0.83532 0.28177 0.84293
 C581 C 0.80958 0.28625 0.81992
 C582 C 0.80048 0.25936 0.79931
 C583 C 0.81949 0.22853 0.80179
 C584 C 0.84598 0.22458 0.82542
 H585 H 0.92652 0.19280 0.92328
 H586 H 0.92459 0.30134 0.92044
 H587 H 0.79558 0.31047 0.81846
 H588 H 0.81350 0.20744 0.78573
 H589 H 0.88330 0.19428 0.87862
 H590 H 0.86035 0.20060 0.82661
 C591 C 0.38715 0.73931 0.37730
 C592 C 0.40430 0.71001 0.39044
 C593 C 0.42917 0.71276 0.41562
 C594 C 0.43690 0.74453 0.42797
 C595 C 0.41912 0.77312 0.41428
 N596 N 0.39507 0.76980 0.38980
 C597 C 0.35987 0.73844 0.35122
 N598 N 0.33875 0.76651 0.34708
 C599 C 0.31289 0.76803 0.32407
 C600 C 0.30690 0.74003 0.30357
 C601 C 0.32871 0.71106 0.30666
 C602 C 0.35521 0.71010 0.33042
 H603 H 0.44207 0.69001 0.42566
 H604 H 0.42417 0.79813 0.42306
 H605 H 0.29665 0.79089 0.32221
 H606 H 0.32517 0.68921 0.29069
 H607 H 0.39832 0.68515 0.38217
 H608 H 0.37187 0.68759 0.33190
 C609 C 0.24721 0.87122 0.12515
 C610 C 0.21965 0.89475 0.12094
 C611 C 0.22011 0.91847 0.09439
 C612 C 0.24820 0.91913 0.07249
 C613 C 0.27520 0.89508 0.07752
 N614 N 0.27391 0.87183 0.10316
 C615 C 0.24768 0.84555 0.15267
 N616 N 0.26071 0.81374 0.14581
 C617 C 0.26173 0.78895 0.17006
 C618 C 0.24972 0.79585 0.20349
 C619 C 0.23700 0.82855 0.21145
 C620 C 0.23557 0.85344 0.18597
 H621 H 0.19879 0.93662 0.09132
 H622 H 0.29716 0.89460 0.06092
 H623 H 0.27188 0.76390 0.16329
 H624 H 0.22773 0.83458 0.23718
 H625 H 0.19781 0.89450 0.13768
 H626 H 0.22563 0.87866 0.19235
 C627 C 0.74176 0.39432 0.62233
 C628 C 0.71190 0.40883 0.60766
 C629 C 0.71373 0.43264 0.58139
 C630 C 0.74518 0.44200 0.56956
 C631 C 0.77443 0.42650 0.58449
 N632 N 0.77201 0.40334 0.61005
 C633 C 0.74136 0.36889 0.65017
 N634 N 0.76856 0.34654 0.65407
 C635 C 0.76983 0.32220 0.67879
 C636 C 0.74253 0.31934 0.70131
 C637 C 0.71472 0.34271 0.69851
 C638 C 0.71398 0.36747 0.67301
 H639 H 0.69052 0.44366 0.57036
 H640 H 0.79922 0.43278 0.57598
 H641 H 0.79182 0.30474 0.68043
 H642 H 0.69360 0.34178 0.71612
 H643 H 0.68736 0.40156 0.61582
 H644 H 0.69244 0.38549 0.67169
 C645 C 0.73298 0.13387 0.11755
 C646 C 0.70832 0.11015 0.11683
 C647 C 0.71016 0.08489 0.09175
 C648 C 0.73692 0.08289 0.06806
 C649 C 0.76101 0.10713 0.06965
 N650 N 0.75831 0.13189 0.09383
 C651 C 0.73238 0.16069 0.14373
 N652 N 0.74021 0.19221 0.13431
 C653 C 0.74167 0.21763 0.15761
 C654 C 0.73638 0.21157 0.19288
 C655 C 0.72789 0.17930 0.20299
 C656 C 0.72563 0.15387 0.17848
 H657 H 0.69110 0.06661 0.09122
 H658 H 0.78177 0.10658 0.05149
 H659 H 0.74739 0.24238 0.14863
 H660 H 0.72374 0.17356 0.22995
 H661 H 0.68772 0.11137 0.13522
 H662 H 0.71986 0.12888 0.18675
 C663 C 0.24881 0.60823 0.62286
 C664 C 0.22337 0.58536 0.62337
 C665 C 0.22266 0.56081 0.59767
 C666 C 0.24775 0.55856 0.57215
 C667 C 0.27284 0.58182 0.57266
 N668 N 0.27254 0.60605 0.59746
 C669 C 0.25020 0.63464 0.64935
 N670 N 0.25440 0.66696 0.63959
 C671 C 0.25587 0.69234 0.66297
 C672 C 0.25410 0.68561 0.69856
 C673 C 0.24994 0.65231 0.70901
 C674 C 0.24768 0.62686 0.68451
 H675 H 0.20292 0.54324 0.59803
 H676 H 0.29238 0.58100 0.55311
 H677 H 0.25818 0.71775 0.65371
 H678 H 0.24865 0.64594 0.73616
 H679 H 0.20404 0.58680 0.64316
 H680 H 0.24467 0.60125 0.69291
 C681 C 0.88173 0.75405 0.11907
 C682 C 0.88461 0.72683 0.09601
 C683 C 0.91058 0.72504 0.07168
 C684 C 0.93316 0.75067 0.06983
 C685 C 0.92925 0.77761 0.09318
 N686 N 0.90421 0.77842 0.11720
 C687 C 0.85523 0.75634 0.14576
 N688 N 0.86302 0.76648 0.17822
 C689 C 0.83971 0.76876 0.20400
 C690 C 0.80631 0.76140 0.19737
 C691 C 0.79759 0.75129 0.16410
 C692 C 0.82207 0.74848 0.13823
 H693 H 0.91282 0.70384 0.05409
 H694 H 0.94641 0.79767 0.09272
 H695 H 0.84707 0.77679 0.22947
 H696 H 0.77192 0.74551 0.15827
 H697 H 0.86738 0.70684 0.09726
 H698 H 0.81508 0.74082 0.11251
 C699 C 0.37999 0.23813 0.62335
 C700 C 0.39744 0.20918 0.60990
 C701 C 0.42183 0.21248 0.58435
 C702 C 0.42899 0.24448 0.57217
 C703 C 0.41131 0.27278 0.58663
 N704 N 0.38770 0.26894 0.61151
 C705 C 0.35361 0.23632 0.65023
 N706 N 0.34655 0.26363 0.67083
 C707 C 0.32194 0.26435 0.69529
 C708 C 0.30227 0.23661 0.69964
 C709 C 0.30928 0.20807 0.67903
 C710 C 0.33478 0.20783 0.65422
 H711 H 0.43510 0.18997 0.57421
 H712 H 0.41619 0.29796 0.57824
 H713 H 0.31745 0.28668 0.71102
 H714 H 0.29442 0.18630 0.68157
 H715 H 0.39284 0.18427 0.61924
 H716 H 0.33885 0.18596 0.63781
 C717 C 0.11547 0.24470 0.12492
 C718 C 0.08904 0.26982 0.12490
 C719 C 0.06485 0.27019 0.09874
 C720 C 0.06656 0.24513 0.07322
 C721 C 0.09322 0.22026 0.07437
 N722 N 0.11698 0.22089 0.09962
 C723 C 0.14200 0.24396 0.15153
 N724 N 0.17478 0.23784 0.14198
 C725 C 0.20037 0.23648 0.16535
 C726 C 0.19347 0.24024 0.20080
 C727 C 0.15980 0.24683 0.21108
 C728 C 0.13403 0.24893 0.18652
 H729 H 0.04461 0.28980 0.09865
 H730 H 0.09551 0.20073 0.05488
 H731 H 0.22605 0.23226 0.15624
 H732 H 0.15339 0.24980 0.23815
 H733 H 0.08750 0.28929 0.14448
 H734 H 0.10810 0.25353 0.19482
 C735 C 0.62431 0.76817 0.62284
 C736 C 0.59611 0.79131 0.62262
 C737 C 0.57155 0.78894 0.59707
 C738 C 0.57476 0.76314 0.57238
 C739 C 0.60333 0.74053 0.57355
 N740 N 0.62724 0.74376 0.59822
 C741 C 0.65091 0.76948 0.64922
 N742 N 0.68368 0.76306 0.63973
 C743 C 0.70929 0.76193 0.66305
 C744 C 0.70239 0.76600 0.69845
 C745 C 0.66881 0.77332 0.70867
 C746 C 0.64302 0.77529 0.68411
 H747 H 0.54983 0.80687 0.59691
 H748 H 0.60684 0.72054 0.55467
 H749 H 0.73493 0.75715 0.65402
 H750 H 0.66246 0.77655 0.73573
 H751 H 0.59335 0.81122 0.64168
 H752 H 0.61712 0.77996 0.69245
   
