data_POSCAR
  _audit_creation_date              2014-09-24
  _audit_creation_method            'ToBaCCo'
  _symmetry_space_group_name_H-M    'P1'
  _symmetry_Int_Tables_number       1
  _symmetry_cell_setting            triclinic
  loop_
  _symmetry_equiv_pos_as_xyz
 x,y,z
_cell_length_a 37.8554
_cell_length_b 37.8293
_cell_length_c 33.3893
_cell_angle_alpha 89.870900
_cell_angle_beta 90.027500
_cell_angle_gamma 90.006700
loop_
  _atom_site_label
  _atom_site_type_symbol
  _atom_site_fract_x
  _atom_site_fract_y
  _atom_site_fract_z
C1 C 1.27813 0.21242 0.26970
 C2 C 1.25116 0.23092 0.25015
 C3 C 1.22418 0.21241 0.23077
 C4 C 1.22409 0.17528 0.23015
 C5 C 1.25112 0.15686 0.25038
 C6 C 1.27826 0.17518 0.27069
 C7 C 1.25116 0.26986 0.24998
 C8 C 1.27811 0.28837 0.23044
 C9 C 1.27822 0.32561 0.22941
 C10 C 1.25107 0.34392 0.24970
 C11 C 1.22405 0.32548 0.26993
 C12 C 1.22417 0.28836 0.26932
 H13 H 1.29861 0.22742 0.28470
 H14 H 1.20361 0.22720 0.21560
 H15 H 1.29859 0.27336 0.21546
 H16 H 1.20362 0.27355 0.28448
 H17 H 1.25092 0.12824 0.25028
 H18 H 1.25085 0.37255 0.24977
 C19 C 0.77697 -0.28858 0.26990
 C20 C 0.74983 -0.27009 0.25067
 C21 C 0.72277 -0.28859 0.23144
 C22 C 0.72279 -0.32571 0.23060
 C23 C 0.74999 -0.34415 0.25055
 C24 C 0.77720 -0.32582 0.27073
 C25 C 0.74980 -0.23117 0.25060
 C26 C 0.77695 -0.21263 0.23143
 C27 C 0.77702 -0.17549 0.23064
 C28 C 0.74983 -0.15711 0.25049
 C29 C 0.72262 -0.17552 0.27040
 C30 C 0.72267 -0.21266 0.26971
 H31 H 0.79751 -0.27357 0.28478
 H32 H 0.70210 -0.27379 0.21648
 H33 H 0.79764 -0.22741 0.21656
 H34 H 0.70197 -0.22745 0.28463
 H35 H 0.74987 -0.37277 0.25029
 H36 H 0.74984 -0.12849 0.25045
 C37 C 0.77763 0.21282 -0.23139
 C38 C 0.75050 0.23133 -0.25064
 C39 C 0.72334 0.21280 -0.26971
 C40 C 0.72324 0.17565 -0.27028
 C41 C 0.75044 0.15727 -0.25030
 C42 C 0.77766 0.17568 -0.23048
 C43 C 0.75052 0.27026 -0.25080
 C44 C 0.77763 0.28875 -0.27007
 C45 C 0.77780 0.32599 -0.27104
 C46 C 0.75054 0.34432 -0.25097
 C47 C 0.72337 0.32589 -0.23099
 C48 C 0.72343 0.28877 -0.23167
 H49 H 0.79834 0.22761 -0.21654
 H50 H 0.70265 0.22756 -0.28469
 H51 H 0.79819 0.27373 -0.28488
 H52 H 0.70276 0.27397 -0.21670
 H53 H 0.75041 0.12865 -0.25016
 H54 H 0.75037 0.37294 -0.25084
 C55 C 1.27717 -0.28853 -0.23036
 C56 C 1.24990 -0.27002 -0.24932
 C57 C 1.22270 -0.28850 -0.26831
 C58 C 1.22270 -0.32561 -0.26916
 C59 C 1.25002 -0.34406 -0.24949
 C60 C 1.27738 -0.32576 -0.22956
 C61 C 1.24989 -0.23112 -0.24937
 C62 C 1.27717 -0.21259 -0.26828
 C63 C 1.27723 -0.17545 -0.26907
 C64 C 1.24991 -0.15708 -0.24946
 C65 C 1.22258 -0.17549 -0.22980
 C66 C 1.22262 -0.21262 -0.23050
 H67 H 1.29782 -0.27354 -0.21565
 H68 H 1.20193 -0.27368 -0.28308
 H69 H 1.29796 -0.22735 -0.28299
 H70 H 1.20182 -0.22741 -0.21576
 H71 H 1.24989 -0.37269 -0.24975
 H72 H 1.24992 -0.12846 -0.24949
 C73 C 0.21219 0.27677 0.73188
 C74 C 0.23069 0.24978 0.75137
 C75 C 0.21221 0.22269 0.77074
 C76 C 0.17499 0.22245 0.77145
 C77 C 0.15668 0.24962 0.75104
 C78 C 0.17510 0.27676 0.73096
 C79 C 0.26959 0.24985 0.75143
 C80 C 0.28803 0.27692 0.77077
 C81 C 0.32525 0.27720 0.77155
 C82 C 0.34359 0.25008 0.75124
 C83 C 0.32521 0.22295 0.73121
 C84 C 0.28811 0.22291 0.73207
 H85 H 0.22698 0.29742 0.71683
 H86 H 0.22721 0.20220 0.78582
 H87 H 0.27300 0.29738 0.78574
 H88 H 0.27335 0.20228 0.71704
 H89 H 0.12808 0.24973 0.75071
 H90 H 0.37220 0.24999 0.75097
 C91 C 0.71150 0.77724 0.73052
 C92 C 0.72999 0.75025 0.75003
 C93 C 0.71153 0.72328 0.76959
 C94 C 0.67434 0.72312 0.77051
 C95 C 0.65599 0.75027 0.75011
 C96 C 0.67430 0.77741 0.72969
 C97 C 0.76889 0.75024 0.74997
 C98 C 0.78745 0.77723 0.76932
 C99 C 0.82457 0.77729 0.76999
 C100 C 0.84291 0.75022 0.74984
 C101 C 0.82448 0.72317 0.72975
 C102 C 0.78736 0.72324 0.73055
 H103 H 0.72649 0.79772 0.71542
 H104 H 0.72655 0.70279 0.78466
 H105 H 0.77271 0.79782 0.78441
 H106 H 0.77256 0.70266 0.71550
 H107 H 0.62738 0.75028 0.75015
 H108 H 0.87151 0.75022 0.74979
 C109 C 0.71232 0.27707 0.23064
 C110 C 0.73079 0.24979 0.24970
 C111 C 0.71225 0.22250 0.26863
 C112 C 0.67514 0.22244 0.26927
 C113 C 0.65679 0.24978 0.24948
 C114 C 0.67521 0.27712 0.22979
 C115 C 0.76966 0.24980 0.24983
 C116 C 0.78811 0.27709 0.26876
 C117 C 0.82522 0.27716 0.26964
 C118 C 0.84366 0.24984 0.25008
 C119 C 0.82533 0.22250 0.23040
 C120 C 0.78822 0.22254 0.23103
 H121 H 0.72711 0.29787 0.21589
 H122 H 0.72699 0.20171 0.28348
 H123 H 0.77330 0.29787 0.28342
 H124 H 0.77348 0.20174 0.21627
 H125 H 0.62819 0.24978 0.24940
 H126 H 0.87226 0.24986 0.25017
 C127 C 0.21157 0.77695 0.23061
 C128 C 0.23004 0.74993 0.25006
 C129 C 0.21158 0.72294 0.26956
 C130 C 0.17439 0.72279 0.27048
 C131 C 0.15604 0.74997 0.25013
 C132 C 0.17438 0.77713 0.22975
 C133 C 0.26893 0.74993 0.25002
 C134 C 0.28747 0.77696 0.26932
 C135 C 0.32459 0.77704 0.26999
 C136 C 0.34294 0.74997 0.24988
 C137 C 0.32453 0.72288 0.22983
 C138 C 0.28741 0.72292 0.23065
 H139 H 0.22657 0.79744 0.21555
 H140 H 0.22660 0.70243 0.28460
 H141 H 0.27271 0.79755 0.28438
 H142 H 0.27262 0.70231 0.21563
 H143 H 0.12743 0.74998 0.25015
 H144 H 0.37154 0.74999 0.24981
 O145 O 1.06080 0.01828 0.05007
 O146 O 0.94005 -0.01849 0.05002
 O147 O 0.98219 0.06024 0.05000
 O148 O 1.01867 -0.06059 0.05013
 O149 O 0.93321 0.04090 0.02815
 O150 O 1.06766 -0.04113 0.02838
 O151 O 0.95933 -0.06746 0.02818
 O152 O 1.04149 0.06726 0.02803
 C153 C 1.05821 0.05050 0.05413
 C154 C 0.94268 -0.05070 0.05424
 C155 C 0.95002 0.05746 0.05426
 C156 C 1.05085 -0.05793 0.05438
 O157 O 1.06073 -0.01855 -0.04918
 O158 O 0.94015 0.01850 -0.04934
 O159 O 1.01886 0.06033 -0.04937
 O160 O 0.98190 -0.06040 -0.04926
 O161 O 0.93300 -0.04089 -0.02747
 O162 O 1.06780 0.04079 -0.02753
 O163 O 1.04122 -0.06749 -0.02724
 O164 O 0.95956 0.06741 -0.02745
 Co165 Co 1.05793 -0.00015 0.00044
 Co166 Co 0.94291 -0.00000 0.00034
 Co167 Co 1.00051 0.05748 0.00031
 Co168 Co 1.00029 -0.05766 0.00044
 O169 O 1.00041 -0.00008 0.00039
 C170 C 1.05785 -0.05072 -0.05338
 C171 C 0.94288 0.05071 -0.05354
 C172 C 1.05104 0.05761 -0.05357
 C173 C 0.94972 -0.05764 -0.05348
 O174 O 1.06040 0.51844 0.54937
 O175 O 0.93972 0.48183 0.54940
 O176 O 0.98145 0.56054 0.54917
 O177 O 1.01859 0.43985 0.54947
 O178 O 0.93258 0.54118 0.52714
 O179 O 1.06750 0.45914 0.52743
 O180 O 0.95925 0.43283 0.52782
 O181 O 1.04084 0.56747 0.52761
 C182 C 1.05752 0.55061 0.55368
 C183 C 0.94247 0.44964 0.55376
 C184 C 0.94926 0.55790 0.55322
 C185 C 1.05078 0.44243 0.55357
 O186 O 1.06042 0.48191 0.45001
 O187 O 0.93968 0.51844 0.44989
 O188 O 1.01855 0.56061 0.44998
 O189 O 0.98165 0.43986 0.45019
 O190 O 0.93272 0.45910 0.47212
 O191 O 1.06747 0.54127 0.47203
 O192 O 1.04098 0.43288 0.47185
 O193 O 0.95917 0.56748 0.47147
 Co194 Co 1.05760 0.50019 0.49970
 Co195 Co 0.94252 0.50014 0.49964
 Co196 Co 1.00001 0.55772 0.49957
 Co197 Co 1.00011 0.44266 0.49982
 O198 O 1.00006 0.50018 0.49968
 C199 C 1.05778 0.44970 0.44585
 C200 C 0.94238 0.55064 0.44553
 C201 C 1.05075 0.55802 0.44592
 C202 C 0.94948 0.44254 0.44600
 O203 O 0.56017 0.01841 0.55000
 O204 O 0.43950 -0.01840 0.55002
 O205 O 0.48157 0.06038 0.54992
 O206 O 0.51817 -0.06047 0.55019
 O207 O 0.43257 0.04099 0.52818
 O208 O 0.56713 -0.04099 0.52839
 O209 O 0.45884 -0.06736 0.52820
 O210 O 0.54086 0.06737 0.52789
 C211 C 0.55753 0.05063 0.55405
 C212 C 0.44227 -0.05059 0.55431
 C213 C 0.44939 0.05770 0.55417
 C214 C 0.55036 -0.05780 0.55441
 O215 O 0.56015 -0.01852 0.45079
 O216 O 0.43949 0.01855 0.45065
 O217 O 0.51818 0.06033 0.45052
 O218 O 0.48140 -0.06038 0.45080
 O219 O 0.43247 -0.04084 0.47253
 O220 O 0.56712 0.04083 0.47239
 O221 O 0.54073 -0.06746 0.47281
 O222 O 0.45890 0.06748 0.47250
 Co223 Co 0.55733 -0.00006 0.50040
 Co224 Co 0.44232 0.00007 0.50034
 Co225 Co 0.49987 0.05755 0.50022
 Co226 Co 0.49979 -0.05759 0.50049
 O227 O 0.49983 -0.00001 0.50037
 C228 C 0.55742 -0.05072 0.44669
 C229 C 0.44216 0.05077 0.44645
 C230 C 0.55033 0.05746 0.44624
 C231 C 0.44923 -0.05761 0.44655
 O232 O 0.56016 0.51836 0.04894
 O233 O 0.43943 0.48176 0.04907
 O234 O 0.48118 0.56044 0.04881
 O235 O 0.51837 0.43981 0.04890
 O236 O 0.43229 0.54113 0.02678
 O237 O 0.56723 0.45910 0.02674
 O238 O 0.45901 0.43278 0.02746
 O239 O 0.54055 0.56742 0.02733
 C240 C 0.55735 0.55053 0.05330
 C241 C 0.44221 0.44956 0.05341
 C242 C 0.44899 0.55780 0.05288
 C243 C 0.55055 0.44250 0.05298
 O244 O 0.56007 0.48204 -0.05052
 O245 O 0.43932 0.51836 -0.05044
 O246 O 0.51828 0.56062 -0.05038
 O247 O 0.48121 0.43985 -0.05027
 O248 O 0.43231 0.45901 -0.02819
 O249 O 0.56719 0.54135 -0.02831
 O250 O 0.54060 0.43296 -0.02881
 O251 O 0.45891 0.56739 -0.02889
 Co252 Co 0.55731 0.50021 -0.00079
 Co253 Co 0.44220 0.50007 -0.00070
 Co254 Co 0.49973 0.55768 -0.00078
 Co255 Co 0.49980 0.44264 -0.00069
 O256 O 0.49976 0.50015 -0.00074
 C257 C 0.55733 0.44985 -0.05481
 C258 C 0.44217 0.55054 -0.05486
 C259 C 0.55049 0.55812 -0.05441
 C260 C 0.44900 0.44233 -0.05428
 C261 C 1.14692 0.12140 0.16339
 N262 N 1.14741 0.15723 0.16458
 N263 N 1.17155 0.17420 0.18627
 C264 C 1.19626 0.15610 0.20757
 N265 N 1.19553 0.12018 0.20658
 N266 N 1.17134 0.10317 0.18491
 C267 C 1.12173 0.10283 0.13738
 N268 N 1.12174 0.06700 0.13530
 N269 N 1.10063 0.05028 0.10963
 C270 C 1.07873 0.06878 0.08510
 N271 N 1.07838 0.10458 0.08751
 N272 N 1.09946 0.12130 0.11324
 C273 C 1.14529 0.62086 0.66423
 N274 N 1.14568 0.65667 0.66578
 N275 N 1.16987 0.67352 0.68750
 C276 C 1.19473 0.65531 0.70845
 N277 N 1.19408 0.61941 0.70713
 N278 N 1.16984 0.60251 0.68544
 C279 C 1.12021 0.60245 0.63800
 N280 N 1.12036 0.56665 0.63554
 N281 N 1.09948 0.55009 0.60952
 C282 C 1.07769 0.56872 0.58500
 N283 N 1.07718 0.60450 0.58781
 N284 N 1.09803 0.62106 0.61389
 C285 C 0.64587 0.12165 0.66349
 N286 N 0.64629 0.15747 0.66468
 N287 N 0.67048 0.17449 0.68624
 C288 C 0.69531 0.15643 0.70741
 N289 N 0.69464 0.12051 0.70644
 N290 N 0.67041 0.10346 0.68489
 C291 C 0.62072 0.10304 0.63750
 N292 N 0.62082 0.06721 0.63538
 N293 N 0.59980 0.05047 0.60965
 C294 C 0.57791 0.06893 0.58508
 N295 N 0.57746 0.10473 0.58754
 N296 N 0.59845 0.12147 0.61333
 C297 C 0.64562 0.62073 0.16354
 N298 N 0.64598 0.65654 0.16516
 N299 N 0.67011 0.67339 0.18698
 C300 C 0.69494 0.65518 0.20799
 N301 N 0.69433 0.61928 0.20659
 N302 N 0.67016 0.60239 0.18478
 C303 C 0.62050 0.60233 0.13730
 N304 N 0.62062 0.56652 0.13481
 N305 N 0.59961 0.54999 0.10889
 C306 C 0.57771 0.56863 0.08451
 N307 N 0.57725 0.60441 0.08734
 N308 N 0.59823 0.62095 0.11332
 C309 C 0.85437 -0.12157 0.16409
 N310 N 0.82985 -0.10335 0.18536
 N311 N 0.80562 -0.12038 0.20701
 C312 C 0.80495 -0.15629 0.20822
 N313 N 0.82977 -0.17438 0.18719
 N314 N 0.85395 -0.15740 0.16552
 C315 C 0.87952 -0.10300 0.13799
 N316 N 0.90175 -0.12147 0.11393
 N317 N 0.92273 -0.10477 0.08804
 C318 C 0.92231 -0.06897 0.08537
 N319 N 0.90046 -0.05047 0.10982
 N320 N 0.87944 -0.06718 0.13566
 C321 C 0.85387 0.37900 0.66356
 N322 N 0.82891 0.39720 0.68418
 N323 N 0.80464 0.38017 0.70577
 C324 C 0.80429 0.34424 0.70761
 N325 N 0.82965 0.32623 0.68725
 N326 N 0.85387 0.34321 0.66563
 C327 C 0.87909 0.39753 0.63749
 N328 N 0.90160 0.37901 0.61379
 N329 N 0.92265 0.39566 0.58792
 C330 C 0.92204 0.43143 0.58491
 N331 N 0.89990 0.44997 0.60901
 N332 N 0.87881 0.43333 0.63482
 C333 C 0.35470 -0.12148 0.66474
 N334 N 0.33012 -0.10328 0.68593
 N335 N 0.30587 -0.12033 0.70751
 C336 C 0.30524 -0.15624 0.70871
 N337 N 0.33014 -0.17431 0.68778
 N338 N 0.35434 -0.15730 0.66618
 C339 C 0.37975 -0.10290 0.63858
 N340 N 0.40193 -0.12135 0.61446
 N341 N 0.42273 -0.10463 0.58840
 C342 C 0.42215 -0.06884 0.58561
 N343 N 0.40035 -0.05036 0.61014
 N344 N 0.37952 -0.06708 0.63615
 C345 C 0.35384 0.37873 0.16340
 N346 N 0.32897 0.39689 0.18418
 N347 N 0.30484 0.37983 0.20595
 C348 C 0.30455 0.34390 0.20782
 N349 N 0.32983 0.32592 0.18727
 N350 N 0.35390 0.34293 0.16547
 C351 C 0.37896 0.39730 0.13720
 N352 N 0.40145 0.37884 0.11345
 N353 N 0.42245 0.39553 0.08754
 C354 C 0.42180 0.43131 0.08456
 N355 N 0.39967 0.44980 0.10872
 N356 N 0.37863 0.43311 0.13456
 C357 C 0.85485 0.12175 -0.16364
 N358 N 0.85445 0.15757 -0.16506
 N359 N 0.83032 0.17457 -0.18682
 C360 C 0.80554 0.15648 -0.20796
 N361 N 0.80621 0.12057 -0.20676
 N362 N 0.83038 0.10354 -0.18502
 C363 C 0.87993 0.10315 -0.13745
 N364 N 0.87981 0.06732 -0.13516
 N365 N 0.90075 0.05058 -0.10926
 C366 C 0.92258 0.06903 -0.08472
 N367 N 0.92305 0.10484 -0.08735
 N368 N 0.90214 0.12158 -0.11330
 C369 C 0.85348 0.62119 0.33590
 N370 N 0.82852 0.60298 0.31526
 N371 N 0.80418 0.61999 0.29374
 C372 C 0.80375 0.65593 0.29200
 N373 N 0.82911 0.67395 0.31239
 N374 N 0.85340 0.65698 0.33394
 C375 C 0.87878 0.60268 0.36191
 N376 N 0.90131 0.62122 0.38559
 N377 N 0.92243 0.60460 0.41142
 C378 C 0.92188 0.56882 0.41440
 N379 N 0.89974 0.55025 0.39032
 N380 N 0.87857 0.56687 0.36455
 C381 C 0.35387 0.12192 0.33661
 N382 N 0.35394 0.15773 0.33466
 N383 N 0.32987 0.17480 0.31289
 C384 C 0.30460 0.15686 0.29225
 N385 N 0.30488 0.12093 0.29400
 N386 N 0.32900 0.10382 0.31574
 C387 C 0.37896 0.10327 0.36278
 N388 N 0.37862 0.06746 0.36528
 N389 N 0.39963 0.05068 0.39109
 C390 C 0.42174 0.06910 0.41536
 N391 N 0.42240 0.10489 0.41253
 N392 N 0.40144 0.12166 0.38665
 C393 C 0.35385 0.62115 -0.16487
 N394 N 0.35384 0.65694 -0.16685
 N395 N 0.32951 0.67395 -0.18828
 C396 C 0.30403 0.65596 -0.20851
 N397 N 0.30440 0.62003 -0.20678
 N398 N 0.32879 0.60297 -0.18537
 C399 C 0.37909 0.60262 -0.13886
 N400 N 0.37873 0.56682 -0.13614
 N401 N 0.39975 0.55018 -0.11025
 C402 C 0.42188 0.56871 -0.08612
 N403 N 0.42260 0.60448 -0.08920
 N404 N 0.40161 0.62112 -0.11516
 C405 C 1.14521 -0.12158 -0.16368
 N406 N 1.14555 -0.15740 -0.16500
 N407 N 1.16971 -0.17440 -0.18658
 C408 C 1.19460 -0.15630 -0.20762
 N409 N 1.19399 -0.12040 -0.20654
 N410 N 1.16978 -0.10337 -0.18498
 C411 C 1.12022 -0.10301 -0.13754
 N412 N 1.12050 -0.06720 -0.13524
 N413 N 1.09972 -0.05049 -0.10926
 C414 C 1.07792 -0.06897 -0.08464
 N415 N 1.07728 -0.10476 -0.08730
 N416 N 1.09803 -0.12147 -0.11333
 C417 C 1.14676 0.37916 0.33665
 N418 N 1.14728 0.34333 0.33535
 N419 N 1.17146 0.32644 0.31368
 C420 C 1.19620 0.34462 0.29250
 N421 N 1.19544 0.38053 0.29361
 N422 N 1.17121 0.39746 0.31527
 C423 C 1.12150 0.39763 0.36265
 N424 N 1.12145 0.43346 0.36483
 N425 N 1.10026 0.45008 0.39048
 C426 C 1.07834 0.43150 0.41488
 N427 N 1.07805 0.39570 0.41236
 N428 N 1.09921 0.37908 0.38666
 C429 C 0.64544 -0.12162 0.33692
 N430 N 0.64582 -0.15744 0.33563
 N431 N 0.66994 -0.17442 0.31396
 C432 C 0.69474 -0.15632 0.29280
 N433 N 0.69410 -0.12042 0.29387
 N434 N 0.66993 -0.10339 0.31552
 C435 C 0.62037 -0.10305 0.36302
 N436 N 0.62051 -0.06722 0.36521
 N437 N 0.59957 -0.05051 0.39103
 C438 C 0.57773 -0.06900 0.41560
 N439 N 0.57724 -0.10480 0.41307
 N440 N 0.59815 -0.12151 0.38720
 C441 C 0.64595 0.37953 -0.16448
 N442 N 0.64638 0.34371 -0.16594
 N443 N 0.67059 0.32683 -0.18758
 C444 C 0.69544 0.34502 -0.20856
 N445 N 0.69477 0.38092 -0.20731
 N446 N 0.67051 0.39785 -0.18569
 C447 C 0.62073 0.39796 -0.13843
 N448 N 0.62078 0.43378 -0.13607
 N449 N 0.59968 0.45035 -0.11029
 C450 C 0.57776 0.43172 -0.08593
 N451 N 0.57736 0.39594 -0.08865
 N452 N 0.59842 0.37937 -0.11448
 C453 C 1.12189 0.14637 -0.16313
 N454 N 1.15766 0.14643 -0.16491
 N455 N 1.17468 0.17065 -0.18652
 C456 C 1.15671 0.19597 -0.20717
 N457 N 1.12080 0.19556 -0.20560
 N458 N 1.10374 0.17129 -0.18402
 C459 C 1.10331 0.12113 -0.13710
 N460 N 1.06752 0.12140 -0.13466
 N461 N 1.05083 0.10026 -0.10891
 C462 C 1.06929 0.07810 -0.08464
 N463 N 1.10506 0.07751 -0.08742
 N464 N 1.12175 0.09860 -0.11323
 C465 C 1.12146 0.64685 0.33630
 N466 N 1.15723 0.64690 0.33439
 N467 N 1.17419 0.67108 0.31266
 C468 C 1.15617 0.69636 0.29203
 N469 N 1.12026 0.69597 0.29373
 N470 N 1.10326 0.67174 0.31543
 C471 C 1.10294 0.62163 0.36241
 N472 N 1.06715 0.62180 0.36481
 N473 N 1.05050 0.60066 0.39057
 C474 C 1.06900 0.57858 0.41489
 N475 N 1.10477 0.57808 0.41217
 N476 N 1.12143 0.59918 0.38634
 C477 C 0.62115 0.14499 0.33561
 N478 N 0.65695 0.14529 0.33421
 N479 N 0.67396 0.16948 0.31256
 C480 C 0.65592 0.19444 0.29153
 N481 N 0.62003 0.19387 0.29269
 N482 N 0.60298 0.16963 0.31432
 C483 C 0.60257 0.11995 0.36182
 N484 N 0.56679 0.12026 0.36423
 N485 N 0.55009 0.09943 0.39028
 C486 C 0.56856 0.07756 0.41487
 N487 N 0.60431 0.07690 0.41211
 N488 N 0.62101 0.09769 0.38600
 C489 C 0.62134 0.64719 -0.16370
 N490 N 0.65712 0.64725 -0.16555
 N491 N 0.67410 0.67143 -0.18726
 C492 C 0.65611 0.69671 -0.20793
 N493 N 0.62020 0.69631 -0.20627
 N494 N 0.60317 0.67207 -0.18460
 C495 C 0.60279 0.62193 -0.13765
 N496 N 0.56699 0.62209 -0.13532
 N497 N 0.55030 0.60089 -0.10964
 C498 C 0.56877 0.57877 -0.08535
 N499 N 0.60454 0.57828 -0.08800
 N500 N 0.62124 0.59944 -0.11375
 C501 C 0.87864 -0.14577 -0.16316
 N502 N 0.84283 -0.14612 -0.16450
 N503 N 0.82580 -0.17018 -0.18624
 C504 C 0.84382 -0.19494 -0.20744
 N505 N 0.87971 -0.19435 -0.20630
 N506 N 0.89679 -0.17025 -0.18458
 C507 C 0.89727 -0.12071 -0.13705
 N508 N 0.93307 -0.12089 -0.13478
 N509 N 0.94982 -0.09991 -0.10900
 C510 C 0.93140 -0.07799 -0.08455
 N511 N 0.89563 -0.07748 -0.08715
 N512 N 0.87887 -0.09842 -0.11298
 C513 C 0.87889 0.35467 0.33589
 N514 N 0.84309 0.35422 0.33446
 N515 N 0.82618 0.33000 0.31285
 C516 C 0.84433 0.30518 0.29189
 N517 N 0.88021 0.30589 0.29308
 N518 N 0.89716 0.33016 0.31467
 C519 C 0.89737 0.37977 0.36201
 N520 N 0.93316 0.37968 0.36434
 N521 N 0.94980 0.40059 0.39026
 C522 C 0.93127 0.42232 0.41481
 N523 N 0.89550 0.42276 0.41213
 N524 N 0.87886 0.40189 0.38615
 C525 C 0.37846 -0.14586 0.33677
 N526 N 0.34266 -0.14625 0.33535
 N527 N 0.32569 -0.17035 0.31363
 C528 C 0.34378 -0.19513 0.29252
 N529 N 0.37967 -0.19449 0.29373
 N530 N 0.39667 -0.17034 0.31544
 C531 C 0.39700 -0.12075 0.36289
 N532 N 0.43279 -0.12087 0.36523
 N533 N 0.44947 -0.09987 0.39104
 C534 C 0.43098 -0.07797 0.41545
 N535 N 0.39520 -0.07751 0.41278
 N536 N 0.37853 -0.09848 0.38692
 C537 C 0.37821 0.35329 -0.16324
 N538 N 0.34243 0.35314 -0.16502
 N539 N 0.32546 0.32891 -0.18656
 C540 C 0.34348 0.30367 -0.20713
 N541 N 0.37939 0.30416 -0.20555
 N542 N 0.39640 0.32845 -0.18404
 C543 C 0.39674 0.37857 -0.13732
 N544 N 0.43254 0.37850 -0.13502
 N545 N 0.44922 0.39969 -0.10941
 C546 C 0.43072 0.42173 -0.08516
 N547 N 0.39495 0.42213 -0.08780
 N548 N 0.37827 0.40098 -0.11347
 C549 C 1.12143 -0.14681 0.16409
 N550 N 1.10323 -0.17172 0.18491
 N551 N 1.12024 -0.19600 0.20656
 C552 C 1.15615 -0.19641 0.20827
 N553 N 1.17416 -0.17109 0.18768
 N554 N 1.15720 -0.14687 0.16600
 C555 C 1.10292 -0.12155 0.13800
 N556 N 1.12142 -0.09903 0.11420
 N557 N 1.10480 -0.07792 0.08835
 C558 C 1.06904 -0.07847 0.08548
 N559 N 1.05051 -0.10061 0.10968
 N560 N 1.06714 -0.12178 0.13546
 C561 C 1.12143 0.35387 0.66357
 N562 N 1.15723 0.35339 0.66499
 N563 N 1.17413 0.32927 0.68689
 C564 C 1.15597 0.30457 0.70818
 N565 N 1.12009 0.30530 0.70696
 N566 N 1.10315 0.32946 0.68508
 C567 C 1.10295 0.37902 0.63733
 N568 N 1.06715 0.37906 0.63511
 N569 N 1.05050 0.40014 0.60925
 C570 C 1.06904 0.42195 0.58467
 N571 N 1.10482 0.42225 0.58721
 N572 N 1.12146 0.40120 0.61313
 C573 C 0.62121 -0.14664 0.66398
 N574 N 0.65699 -0.14668 0.66583
 N575 N 0.67400 -0.17086 0.68752
 C576 C 0.65603 -0.19616 0.70817
 N577 N 0.62012 -0.19578 0.70652
 N578 N 0.60307 -0.17155 0.68487
 C579 C 0.60263 -0.12140 0.63792
 N580 N 0.56684 -0.12166 0.63545
 N581 N 0.55014 -0.10051 0.60971
 C582 C 0.56861 -0.07834 0.58548
 N583 N 0.60437 -0.07775 0.58828
 N584 N 0.62107 -0.09886 0.61408
 C585 C 0.62143 0.35462 0.16328
 N586 N 0.65723 0.35416 0.16460
 N587 N 0.67418 0.32995 0.18628
 C588 C 0.65607 0.30513 0.20743
 N589 N 0.62019 0.30585 0.20635
 N590 N 0.60320 0.33011 0.18468
 C591 C 0.60288 0.37971 0.13709
 N592 N 0.56709 0.37962 0.13488
 N593 N 0.55038 0.40052 0.10891
 C594 C 0.56885 0.42227 0.08419
 N595 N 0.60462 0.42272 0.08675
 N596 N 0.62133 0.40184 0.11278
 C597 C 0.87930 0.14507 0.16443
 N598 N 0.89748 0.16972 0.18558
 N599 N 0.88043 0.19395 0.20709
 C600 C 0.84455 0.19451 0.20827
 N601 N 0.82650 0.16955 0.18738
 N602 N 0.84350 0.14536 0.16585
 C603 C 0.89786 0.12002 0.13834
 N604 N 0.87939 0.09777 0.11428
 N605 N 0.89607 0.07696 0.08828
 C606 C 0.93183 0.07759 0.08552
 N607 N 0.95032 0.09944 0.10999
 N608 N 0.93364 0.12029 0.13593
 C609 C 0.87829 0.64622 0.66273
 N610 N 0.89652 0.67058 0.68425
 N611 N 0.87952 0.69468 0.70602
 C612 C 0.84364 0.69539 0.70710
 N613 N 0.82553 0.67075 0.68579
 N614 N 0.84249 0.64669 0.66401
 C615 C 0.89686 0.62113 0.63661
 N616 N 0.87842 0.59896 0.61242
 N617 N 0.89514 0.57798 0.58663
 C618 C 0.93093 0.57834 0.58419
 N619 N 0.94939 0.60015 0.60876
 N620 N 0.93266 0.62116 0.63450
 C621 C 0.37892 0.14600 0.66408
 N622 N 0.39719 0.17048 0.68540
 N623 N 0.38025 0.19459 0.70721
 C624 C 0.34436 0.19519 0.70854
 N625 N 0.32622 0.17043 0.68744
 N626 N 0.34313 0.14636 0.66562
 C627 C 0.39739 0.12091 0.63789
 N628 N 0.37885 0.09867 0.61389
 N629 N 0.39545 0.07769 0.58800
 C630 C 0.43122 0.07811 0.58528
 N631 N 0.44979 0.09998 0.60967
 N632 N 0.43318 0.12100 0.63551
 C633 C 0.37825 0.64595 0.16271
 N634 N 0.39651 0.67032 0.18419
 N635 N 0.37955 0.69442 0.20600
 C636 C 0.34367 0.69511 0.20718
 N637 N 0.32553 0.67045 0.18592
 N638 N 0.34245 0.64640 0.16409
 C639 C 0.39676 0.62090 0.13652
 N640 N 0.37827 0.59877 0.11232
 N641 N 0.39493 0.57783 0.08644
 C642 C 0.43071 0.57818 0.08392
 N643 N 0.44922 0.59994 0.10850
 N644 N 0.43256 0.62092 0.13432
   
