data_POSCAR
  _audit_creation_date              2014-09-24
  _audit_creation_method            'ToBaCCo'
  _symmetry_space_group_name_H-M    'P1'
  _symmetry_Int_Tables_number       1
  _symmetry_cell_setting            triclinic
  loop_
  _symmetry_equiv_pos_as_xyz
 x,y,z
_cell_length_a 42.6316
_cell_length_b 25.5819
_cell_length_c 14.7167
_cell_angle_alpha 90.097900
_cell_angle_beta 89.750900
_cell_angle_gamma 90.327300
loop_
  _atom_site_label
  _atom_site_type_symbol
  _atom_site_fract_x
  _atom_site_fract_y
  _atom_site_fract_z
C1 C 0.74552 0.23825 0.45295
 C2 C 0.74607 0.23811 0.54575
 C3 C 0.72092 0.26343 0.60068
 C4 C 0.77212 0.21313 0.59648
 C5 C 0.76871 0.20822 0.39869
 C6 C 0.72224 0.26927 0.40147
 C7 C 0.72893 0.29824 0.67048
 C8 C 0.70569 0.32467 0.71919
 C9 C 0.67354 0.31796 0.69788
 C10 C 0.66582 0.27999 0.63153
 C11 C 0.68912 0.25308 0.58398
 C12 C 0.80354 0.22627 0.57832
 C13 C 0.82780 0.20072 0.62342
 C14 C 0.82131 0.16174 0.68842
 C15 C 0.78962 0.15073 0.70944
 C16 C 0.76540 0.17600 0.66368
 C17 C 0.77297 0.15453 0.41315
 C18 C 0.79692 0.12770 0.36812
 C19 C 0.81678 0.15389 0.30606
 C20 C 0.81157 0.20741 0.28990
 C21 C 0.78768 0.23413 0.33507
 C22 C 0.70313 0.24467 0.33690
 C23 C 0.67986 0.27276 0.29220
 C24 C 0.67540 0.32638 0.30985
 C25 C 0.69523 0.35109 0.37348
 C26 C 0.71857 0.32292 0.41791
 H27 H 0.75333 0.30564 0.68652
 H28 H 0.71351 0.34987 0.77348
 H29 H 0.64152 0.27154 0.61562
 H30 H 0.68230 0.22467 0.53302
 H31 H 0.80929 0.25602 0.52862
 H32 H 0.85182 0.21131 0.60732
 H33 H 0.74130 0.16605 0.67999
 H34 H 0.75833 0.13376 0.46155
 H35 H 0.80015 0.08712 0.38511
 H36 H 0.82667 0.22902 0.24384
 H37 H 0.78480 0.27558 0.32303
 H38 H 0.70562 0.20329 0.32313
 H39 H 0.66479 0.25229 0.24477
 H40 H 0.69261 0.39164 0.39175
 H41 H 0.73337 0.34275 0.46685
 H42 H 0.78294 0.12313 0.76133
 C43 C 0.25265 0.75510 0.54795
 C44 C 0.25237 0.75684 0.45548
 C45 C 0.27769 0.73275 0.40049
 C46 C 0.22660 0.78207 0.40458
 C47 C 0.22787 0.78024 0.60348
 C48 C 0.27794 0.72823 0.59833
 C49 C 0.30907 0.74835 0.41048
 C50 C 0.33281 0.72248 0.36288
 C51 C 0.32568 0.68114 0.30286
 C52 C 0.29399 0.66600 0.29322
 C53 C 0.27032 0.69197 0.34065
 C54 C 0.23359 0.82288 0.34445
 C55 C 0.20973 0.84782 0.29678
 C56 C 0.17820 0.83164 0.30657
 C57 C 0.17141 0.79065 0.36759
 C58 C 0.19533 0.76585 0.41547
 C59 C 0.21022 0.74991 0.66428
 C60 C 0.18594 0.77221 0.71474
 C61 C 0.17901 0.82583 0.70638
 C62 C 0.19752 0.85629 0.64682
 C63 C 0.22173 0.83383 0.59615
 C64 C 0.28478 0.67541 0.58254
 C65 C 0.30996 0.65184 0.62658
 C66 C 0.32885 0.68051 0.68742
 C67 C 0.32048 0.73258 0.70711
 C68 C 0.29547 0.75615 0.66255
 H69 H 0.31519 0.77985 0.45647
 H70 H 0.35692 0.73444 0.37365
 H71 H 0.28703 0.63324 0.25164
 H72 H 0.24623 0.67901 0.33310
 H73 H 0.25759 0.83619 0.33583
 H74 H 0.21646 0.88025 0.25420
 H75 H 0.18947 0.73411 0.46120
 H76 H 0.21477 0.70847 0.67097
 H77 H 0.17262 0.74647 0.75820
 H78 H 0.19283 0.89757 0.63849
 H79 H 0.23547 0.85808 0.55051
 H80 H 0.27084 0.65264 0.53538
 H81 H 0.31486 0.61111 0.61267
 H82 H 0.33275 0.75557 0.75726
 H83 H 0.29003 0.79662 0.67726
 H84 H 0.14742 0.77783 0.37825
 C85 C 0.24727 0.25612 -0.54841
 C86 C 0.24734 0.25770 -0.45584
 C87 C 0.22164 0.23365 -0.40127
 C88 C 0.27264 0.28517 -0.40576
 C89 C 0.27377 0.27763 -0.60254
 C90 C 0.21986 0.23575 -0.59930
 C91 C 0.20502 0.26384 -0.33804
 C92 C 0.17942 0.24265 -0.29081
 C93 C 0.16955 0.19057 -0.30651
 C94 C 0.18773 0.15978 -0.36646
 C95 C 0.21328 0.18106 -0.41337
 C96 C 0.27866 0.33833 -0.42129
 C97 C 0.30384 0.36335 -0.37894
 C98 C 0.32319 0.33597 -0.31807
 C99 C 0.31676 0.28260 -0.30254
 C100 C 0.29157 0.25763 -0.34515
 C101 C 0.30434 0.25876 -0.59171
 C102 C 0.32942 0.28199 -0.63833
 C103 C 0.32448 0.32398 -0.69875
 C104 C 0.29360 0.34329 -0.70703
 C105 C 0.26860 0.31969 -0.66101
 C106 C 0.22333 0.19362 -0.65918
 C107 C 0.19712 0.17187 -0.70194
 C108 C 0.16670 0.19150 -0.68533
 C109 C 0.16397 0.23654 -0.63009
 C110 C 0.19020 0.25799 -0.58717
 H111 H 0.21155 0.30427 -0.32633
 H112 H 0.16797 0.26752 -0.24176
 H113 H 0.18200 0.11896 -0.37758
 H114 H 0.22640 0.15659 -0.45992
 H115 H 0.26418 0.36022 -0.46786
 H116 H 0.30816 0.40364 -0.39651
 H117 H 0.28735 0.21645 -0.33282
 H118 H 0.30882 0.22665 -0.54577
 H119 H 0.35281 0.26741 -0.62598
 H120 H 0.28840 0.37763 -0.74665
 H121 H 0.24526 0.33567 -0.66824
 H122 H 0.24622 0.17667 -0.67087
 H123 H 0.20056 0.13885 -0.74700
 H124 H 0.14194 0.25616 -0.61955
 H125 H 0.18733 0.29183 -0.54363
 H126 H 0.33153 0.26000 -0.25782
 C127 C -0.24703 0.74256 -0.45325
 C128 C -0.24780 0.74398 -0.54582
 C129 C -0.22210 0.76906 -0.59874
 C130 C -0.27437 0.72101 -0.59775
 C131 C -0.27391 0.72260 -0.39948
 C132 C -0.21967 0.76262 -0.40191
 C133 C -0.21394 0.82149 -0.58377
 C134 C -0.18809 0.84355 -0.62812
 C135 C -0.16944 0.81362 -0.68809
 C136 C -0.17930 0.76193 -0.70740
 C137 C -0.20517 0.73993 -0.66266
 C138 C -0.29066 0.75164 -0.66046
 C139 C -0.31663 0.73133 -0.70660
 C140 C -0.32726 0.67972 -0.69024
 C141 C -0.30955 0.64848 -0.63050
 C142 C -0.28356 0.66886 -0.58483
 C143 C -0.27024 0.67924 -0.34272
 C144 C -0.29616 0.65768 -0.29773
 C145 C -0.32643 0.67874 -0.30925
 C146 C -0.32913 0.72532 -0.36024
 C147 C -0.30327 0.74642 -0.40577
 C148 C -0.18968 0.74216 -0.41701
 C149 C -0.16353 0.76472 -0.37538
 C150 C -0.16685 0.80864 -0.31810
 C151 C -0.19733 0.82666 -0.29886
 C152 C -0.22344 0.80399 -0.34048
 H153 H -0.22738 0.84515 -0.53671
 H154 H -0.18257 0.88425 -0.61502
 H155 H -0.16759 0.73807 -0.75753
 H156 H -0.21167 0.69973 -0.67673
 H157 H -0.28346 0.79167 -0.67297
 H158 H -0.32768 0.75646 -0.75555
 H159 H -0.27067 0.64393 -0.53897
 H160 H -0.24747 0.66119 -0.33539
 H161 H -0.29259 0.62375 -0.25517
 H162 H -0.35097 0.74621 -0.36551
 H163 H -0.30616 0.78123 -0.44666
 H164 H -0.18650 0.70922 -0.46243
 H165 H -0.14106 0.74714 -0.38872
 H166 H -0.20085 0.85919 -0.25282
 H167 H -0.24651 0.81986 -0.32711
 H168 H -0.31589 0.60796 -0.61888
 O169 O -0.04164 0.90448 0.16431
 O170 O -0.07688 0.94806 0.07519
 C171 C -0.07006 0.91507 0.13858
 O172 O 0.03912 1.10023 0.16329
 O173 O 0.07595 1.05462 0.08226
 C174 C 0.06791 1.08959 0.14158
 O175 O -0.04804 1.08559 0.16636
 O176 O -0.07985 1.03496 0.07664
 C177 C -0.07541 1.06900 0.14063
 O178 O 0.04711 0.90983 0.15972
 O179 O 0.07985 0.96415 0.07874
 C180 C 0.07483 0.92681 0.13642
 Zr181 Zr 0.00203 0.93413 0.11560
 O182 O 0.00455 0.93454 0.25925
 O183 O 0.00168 0.85137 0.11490
 Zr184 Zr -0.00303 1.06599 0.11627
 O185 O -0.00068 1.06606 0.25994
 O186 O -0.00962 1.14796 0.11513
 O187 O -0.02855 0.99677 0.13223
 O188 O 0.02657 1.00317 0.13381
 O189 O 0.04903 0.90989 -0.15285
 O190 O 0.08102 0.96460 -0.07068
 C191 C 0.07647 0.92709 -0.12852
 O192 O -0.04639 1.08698 -0.16506
 O193 O -0.07911 1.03510 -0.07939
 C194 C -0.07409 1.06991 -0.14159
 O195 O 0.04205 1.10051 -0.15524
 O196 O 0.07748 1.05380 -0.07159
 C197 C 0.07053 1.08919 -0.13088
 O198 O -0.03880 0.90503 -0.16732
 O199 O -0.07577 0.94797 -0.08206
 C200 C -0.06763 0.91506 -0.14484
 Zr201 Zr 0.00367 0.93495 -0.11411
 O202 O 0.00838 0.93656 -0.25738
 O203 O 0.00329 0.85223 -0.11712
 Zr204 Zr -0.00142 1.06679 -0.11348
 O205 O 0.00265 1.06728 -0.25690
 O206 O -0.00771 1.14882 -0.11209
 Zr207 Zr -0.04619 0.99481 -0.00142
 Zr208 Zr 0.04683 1.00589 0.00323
 O209 O 0.02839 1.00394 -0.12919
 O210 O -0.02667 0.99759 -0.13317
 O211 O 0.03109 0.92758 0.00196
 O212 O -0.02976 1.07259 0.00026
 O213 O -0.02392 0.92166 -0.00074
 O214 O 0.02538 1.07992 0.00286
 H215 H 0.04036 1.00451 0.18781
 H216 H -0.04503 1.10164 0.00020
 H217 H 0.04293 1.00529 -0.18186
 H218 H -0.03691 0.88942 -0.00168
 H219 H 0.00790 1.16359 0.08003
 H220 H 0.00956 1.16421 -0.07602
 H221 H -0.01423 1.04464 -0.28121
 H222 H -0.01006 0.95504 -0.28186
 H223 H 0.01979 0.84016 -0.07520
 H224 H 0.02016 0.83977 0.07953
 H225 H -0.01425 0.95281 0.28240
 H226 H -0.01711 1.04189 0.28259
 O227 O 0.45549 0.40883 0.16545
 O228 O 0.42194 0.45606 0.07671
 C229 C 0.42750 0.42199 0.13933
 O230 O 0.54412 0.59624 0.15840
 O231 O 0.57870 0.54580 0.07734
 C232 C 0.57238 0.58224 0.13566
 O233 O 0.45573 0.59183 0.16366
 O234 O 0.42218 0.54362 0.07521
 C235 C 0.42779 0.57808 0.13761
 O236 O 0.54380 0.40589 0.16125
 O237 O 0.57838 0.45606 0.07885
 C238 C 0.57201 0.42028 0.13843
 Zr239 Zr 0.50002 0.43424 0.11556
 O240 O 0.50258 0.43522 0.25920
 O241 O 0.49685 0.35162 0.11545
 Zr242 Zr 0.50001 0.56666 0.11408
 O243 O 0.50265 0.56716 0.25770
 O244 O 0.49670 0.64920 0.11201
 O245 O 0.47194 0.50018 0.13193
 O246 O 0.52712 0.50089 0.13192
 O247 O 0.54584 0.40463 -0.15610
 O248 O 0.57950 0.45670 -0.07461
 C249 C 0.57387 0.41985 -0.13290
 O250 O 0.45698 0.58955 -0.16755
 O251 O 0.42244 0.54155 -0.08133
 C252 C 0.42878 0.57577 -0.14355
 O253 O 0.54477 0.59477 -0.15826
 O254 O 0.57934 0.54615 -0.07490
 C255 C 0.57296 0.58160 -0.13496
 O256 O 0.45726 0.40861 -0.16745
 O257 O 0.42256 0.45551 -0.08021
 C258 C 0.42900 0.42222 -0.14388
 Zr259 Zr 0.50128 0.43300 -0.11396
 O260 O 0.50541 0.43050 -0.25724
 O261 O 0.49781 0.35043 -0.10990
 Zr262 Zr 0.50082 0.56532 -0.11544
 O263 O 0.50472 0.56464 -0.25893
 O264 O 0.49733 0.64785 -0.11631
 Zr265 Zr 0.45399 0.49916 -0.00130
 Zr266 Zr 0.54718 0.50068 0.00085
 O267 O 0.52824 0.49960 -0.13096
 O268 O 0.47326 0.49867 -0.13342
 O269 O 0.52877 0.42395 0.00168
 O270 O 0.47321 0.57511 -0.00148
 O271 O 0.47339 0.42370 0.00002
 O272 O 0.52842 0.57675 -0.00031
 H273 H 0.54097 0.50134 0.18582
 H274 H 0.45910 0.60574 -0.00247
 H275 H 0.54252 0.49961 -0.18427
 H276 H 0.45913 0.39297 -0.00037
 H277 H 0.51487 0.66274 0.07708
 H278 H 0.51465 0.66187 -0.07878
 H279 H 0.48708 0.54349 -0.28281
 H280 H 0.48949 0.45444 -0.28210
 H281 H 0.51631 0.33731 -0.07683
 H282 H 0.51472 0.33825 0.07933
 H283 H 0.48475 0.45615 0.28193
 H284 H 0.48497 0.54575 0.28097
 C285 C 0.35088 0.34899 0.25634
 C286 C 0.36854 0.38668 0.32019
 C287 C 0.39386 0.41071 0.28156
 C288 C 0.39951 0.39529 0.18221
 C289 C 0.40165 0.33537 0.18259
 C290 C 0.37627 0.31113 0.22076
 C291 C 0.34306 0.38205 0.17167
 C292 C 0.36825 0.40652 0.13402
 H293 H 0.36161 0.39397 0.39016
 H294 H 0.40845 0.43843 0.31833
 H295 H 0.42096 0.31379 0.15259
 H296 H 0.37402 0.26884 0.22187
 H297 H 0.32055 0.38250 0.13771
 H298 H 0.36619 0.42861 0.07142
 C299 C -0.14284 0.83790 0.26700
 C300 C -0.12225 0.87174 0.33056
 C301 C -0.09849 0.89763 0.28749
 C302 C -0.09683 0.88704 0.18495
 C303 C -0.09503 0.82736 0.17669
 C304 C -0.11877 0.80149 0.21997
 C305 C -0.15345 0.87543 0.19186
 C306 C -0.12963 0.90098 0.14914
 H307 H -0.12550 0.87409 0.40368
 H308 H -0.08194 0.92242 0.32356
 H309 H -0.07578 0.80705 0.14374
 H310 H -0.11846 0.75928 0.22553
 H311 H -0.17781 0.88123 0.17331
 H312 H -0.13396 0.92846 0.09454
 C313 C 0.64599 0.65683 0.26367
 C314 C 0.62365 0.69388 0.21190
 C315 C 0.59966 0.66883 0.16869
 C316 C 0.59952 0.60935 0.18150
 C317 C 0.63222 0.59174 0.14938
 C318 C 0.65629 0.61648 0.19206
 C319 C 0.62368 0.62643 0.32783
 C320 C 0.59969 0.60143 0.28482
 H321 H 0.62456 0.73617 0.21364
 H322 H 0.58154 0.68978 0.13238
 H323 H 0.63630 0.56265 0.09694
 H324 H 0.68064 0.60832 0.17561
 H325 H 0.62615 0.62550 0.40123
 H326 H 0.58207 0.57885 0.32132
 C327 C 0.13994 1.16616 0.27274
 C328 C 0.13992 1.10613 0.28393
 C329 C 0.11603 1.08125 0.24031
 C330 C 0.09384 1.11822 0.18993
 C331 C 0.08299 1.15724 0.26303
 C332 C 0.10688 1.18194 0.30680
 C333 C 0.13905 1.17514 0.16929
 C334 C 0.11507 1.15015 0.12624
 H335 H 0.15678 1.08499 0.32475
 H336 H 0.11277 1.03915 0.24336
 H337 H 0.05870 1.16267 0.28323
 H338 H 0.10196 1.20625 0.36537
 H339 H 0.15584 1.19947 0.13291
 H340 H 0.11144 1.15309 0.05344
 C341 C 0.64850 0.34661 -0.25673
 C342 C 0.65791 0.39112 -0.19935
 C343 C 0.63212 0.41642 -0.15546
 C344 C 0.60158 0.39343 -0.17787
 C345 C 0.60011 0.39482 -0.27693
 C346 C 0.62596 0.36930 -0.32043
 C347 C 0.62987 0.31264 -0.19706
 C348 C 0.60407 0.33837 -0.15400
 H349 H 0.68046 0.41078 -0.20197
 H350 H 0.63526 0.45324 -0.11972
 H351 H 0.58226 0.41552 -0.31482
 H352 H 0.62912 0.36994 -0.39373
 H353 H 0.63523 0.27184 -0.18420
 H354 H 0.58848 0.31861 -0.10645
 C355 C 0.15146 0.85157 -0.24500
 C356 C 0.12728 0.87245 -0.31311
 C357 C 0.10291 0.89829 -0.27422
 C358 C 0.10444 0.90076 -0.17019
 C359 C 0.10741 0.84380 -0.13949
 C360 C 0.13189 0.81797 -0.17798
 C361 C 0.16113 0.89972 -0.18834
 C362 C 0.13661 0.92552 -0.14939
 H363 H 0.12921 0.86730 -0.38618
 H364 H 0.08422 0.91541 -0.31403
 H365 H 0.09217 0.82579 -0.08901
 H366 H 0.13700 0.77833 -0.15773
 H367 H 0.18529 0.91215 -0.17895
 H368 H 0.13998 0.96004 -0.10748
 C369 C 0.35640 0.65368 -0.26680
 C370 C 0.38007 0.68914 -0.21621
 C371 C 0.40355 0.66262 -0.17489
 C372 C 0.40192 0.60322 -0.18841
 C373 C 0.36901 0.58744 -0.15438
 C374 C 0.34537 0.61378 -0.19534
 C375 C 0.37715 0.62204 -0.33287
 C376 C 0.40078 0.59550 -0.29178
 H377 H 0.38027 0.73145 -0.21740
 H378 H 0.42248 0.68245 -0.13939
 H379 H 0.36451 0.55802 -0.10282
 H380 H 0.32089 0.60688 -0.17831
 H381 H 0.37384 0.62120 -0.40596
 H382 H 0.41735 0.57168 -0.32954
 C383 C -0.15134 1.13467 -0.26468
 C384 C -0.15921 1.08797 -0.20200
 C385 C -0.13376 1.06662 -0.16142
 C386 C -0.10240 1.09305 -0.18711
 C387 C -0.10142 1.09068 -0.29132
 C388 C -0.12696 1.11226 -0.33183
 C389 C -0.13255 1.17261 -0.20426
 C390 C -0.10707 1.15096 -0.16403
 H391 H -0.18206 1.06998 -0.19392
 H392 H -0.13584 1.03218 -0.11876
 H393 H -0.08258 1.07268 -0.32988
 H394 H -0.12987 1.11242 -0.40509
 H395 H -0.13899 1.21314 -0.19339
 H396 H -0.09179 1.17297 -0.11899
 C397 C 0.64680 0.65385 -0.26634
 C398 C 0.64529 0.66467 -0.16342
 C399 C 0.62084 0.64086 -0.11998
 C400 C 0.59985 0.60824 -0.18288
 C401 C 0.58985 0.64611 -0.25846
 C402 C 0.61416 0.66941 -0.30255
 C403 C 0.64647 0.59358 -0.27466
 C404 C 0.62209 0.56992 -0.23065
 H405 H 0.66208 0.68915 -0.12765
 H406 H 0.61680 0.64496 -0.04742
 H407 H 0.56583 0.65130 -0.28079
 H408 H 0.60996 0.69207 -0.36339
 H409 H 0.66327 0.57141 -0.31457
 H410 H 0.61835 0.52792 -0.23256
 C411 C 0.14310 1.16683 -0.25982
 C412 C 0.15392 1.12729 -0.18804
 C413 C 0.13018 1.10169 -0.14493
 C414 C 0.09725 1.11766 -0.17685
 C415 C 0.09638 1.17717 -0.16446
 C416 C 0.12007 1.20310 -0.20805
 C417 C 0.12139 1.13522 -0.32353
 C418 C 0.09775 1.10932 -0.28012
 H419 H 0.17836 1.12036 -0.17170
 H420 H 0.13466 1.07310 -0.09221
 H421 H 0.07786 1.19742 -0.12805
 H422 H 0.12039 1.24540 -0.20995
 H423 H 0.12394 1.13419 -0.39698
 H424 H 0.08052 1.08593 -0.31635
 C425 C 0.35150 0.36115 -0.27215
 C426 C 0.35468 0.42129 -0.27773
 C427 C 0.38081 0.44060 -0.23672
 C428 C 0.40138 0.39880 -0.19246
 C429 C 0.37917 0.36902 -0.12821
 C430 C 0.35306 0.34974 -0.16949
 C431 C 0.38269 0.34042 -0.31080
 C432 C 0.40873 0.35999 -0.26932
 H433 H 0.33745 0.44756 -0.30577
 H434 H 0.38579 0.48221 -0.23326
 H435 H 0.38353 0.36378 -0.05618
 H436 H 0.33499 0.32869 -0.13211
 H437 H 0.38411 0.31284 -0.36682
 H438 H 0.43226 0.34895 -0.28992
 C439 C -0.13895 0.83641 -0.27477
 C440 C -0.13989 0.89635 -0.28589
 C441 C -0.11618 0.92222 -0.24307
 C442 C -0.09336 0.88611 -0.19334
 C443 C -0.11395 0.85335 -0.12911
 C444 C -0.13770 0.82747 -0.17153
 C445 C -0.10590 0.82170 -0.30958
 C446 C -0.08220 0.84742 -0.26671
 H447 H -0.15729 0.91665 -0.32605
 H448 H -0.11343 0.96438 -0.24651
 H449 H -0.11011 0.85058 -0.05637
 H450 H -0.15409 0.80253 -0.13491
 H451 H -0.10095 0.79662 -0.36711
 H452 H -0.05789 0.84250 -0.28704
 C453 C 0.35237 0.65258 0.25494
 C454 C 0.34330 0.61432 0.17796
 C455 C 0.36811 0.58934 0.13973
 C456 C 0.40006 0.60494 0.18038
 C457 C 0.40132 0.66470 0.17104
 C458 C 0.37642 0.68956 0.20961
 C459 C 0.37175 0.61956 0.32142
 C460 C 0.39660 0.59474 0.28254
 H461 H 0.32008 0.60970 0.14952
 H462 H 0.36516 0.56316 0.08223
 H463 H 0.41985 0.68560 0.13536
 H464 H 0.37372 0.73168 0.20620
 H465 H 0.36619 0.61574 0.39319
 H466 H 0.41221 0.56980 0.32093
 C467 C -0.15480 1.12813 0.26202
 C468 C -0.12409 1.15055 0.30081
 C469 C -0.09768 1.13134 0.26141
 C470 C -0.10410 1.09095 0.18619
 C471 C -0.12473 1.04908 0.23173
 C472 C -0.15131 1.06820 0.27102
 C473 C -0.15254 1.13781 0.15887
 C474 C -0.12602 1.11870 0.11952
 H475 H -0.12322 1.17892 0.35573
 H476 H -0.07445 1.14359 0.28288
 H477 H -0.11939 1.00766 0.23070
 H478 H -0.16851 1.04200 0.30072
 H479 H -0.17055 1.15728 0.11975
 H480 H -0.12135 1.12222 0.04718
 C481 C 0.64810 0.35414 0.26428
 C482 C 0.64559 0.41406 0.27620
 C483 C 0.62009 0.43523 0.23522
 C484 C 0.59940 0.39531 0.18512
 C485 C 0.62183 0.36745 0.11932
 C486 C 0.64730 0.34621 0.16045
 C487 C 0.61636 0.33280 0.29841
 C488 C 0.59099 0.35408 0.25722
 H489 H 0.66278 0.43893 0.30893
 H490 H 0.61565 0.47700 0.23573
 H491 H 0.61824 0.36531 0.04641
 H492 H 0.66551 0.32627 0.12227
 H493 H 0.61406 0.30352 0.35139
 H494 H 0.56720 0.34266 0.27514
 C495 C 0.15127 0.85820 0.25695
 C496 C 0.12887 0.81935 0.20958
 C497 C 0.10366 0.84214 0.16953
 C498 C 0.10295 0.90187 0.17972
 C499 C 0.10503 0.91202 0.28221
 C500 C 0.13018 0.88932 0.32243
 C501 C 0.15996 0.89746 0.18103
 C502 C 0.13480 0.92030 0.14134
 H503 H 0.13290 0.77754 0.20602
 H504 H 0.08620 0.81979 0.13229
 H505 H 0.08827 0.93551 0.31988
 H506 H 0.13486 0.89350 0.39456
 H507 H 0.18331 0.90438 0.15441
 H508 H 0.13750 0.94676 0.08421
   
