data_POSCAR
  _audit_creation_date              2014-09-24
  _audit_creation_method            'ToBaCCo'
  _symmetry_space_group_name_H-M    'P1'
  _symmetry_Int_Tables_number       1
  _symmetry_cell_setting            triclinic
  loop_
  _symmetry_equiv_pos_as_xyz
 x,y,z
_cell_length_a 20.1566
_cell_length_b 19.2097
_cell_length_c 25.3975
_cell_angle_alpha 89.491600
_cell_angle_beta 89.836600
_cell_angle_gamma 89.562100
loop_
  _atom_site_label
  _atom_site_type_symbol
  _atom_site_fract_x
  _atom_site_fract_y
  _atom_site_fract_z
O1 O 0.10327 0.02309 0.06951
 O2 O -0.13380 -0.06935 0.04085
 O3 O -0.05699 0.14098 0.03669
 O4 O 0.06679 -0.10724 0.05718
 O5 O -0.11459 0.05385 0.06614
 O6 O 0.14745 -0.07322 0.01291
 O7 O -0.04430 -0.11894 0.06630
 O8 O 0.06014 0.12310 0.05457
 C9 C 0.09151 0.08304 0.08474
 C10 C -0.10445 -0.10990 0.07128
 C11 C -0.09657 0.11548 0.07053
 C12 C 0.12656 -0.11313 0.04767
 O13 O 0.09834 -0.01718 -0.06965
 O14 O -0.12280 0.08976 -0.03313
 O15 O 0.08354 0.10545 -0.05086
 O16 O -0.06526 -0.12965 -0.03916
 O17 O -0.12652 -0.03673 -0.05704
 O18 O 0.16980 0.05775 -0.01394
 O19 O 0.05780 -0.11891 -0.05151
 O20 O -0.02995 0.11322 -0.06799
 Co21 Co 0.09675 0.00546 -0.00004
 Co22 Co -0.11285 0.00902 0.00413
 Co23 Co 0.01264 0.11043 -0.00570
 Co24 Co 0.00382 -0.10919 0.00721
 O25 O -0.00414 0.00021 0.00297
 C26 C 0.08794 -0.07860 -0.08297
 C27 C -0.09089 0.11169 -0.07165
 C28 C 0.14599 0.10675 -0.04427
 C29 C -0.11065 -0.09904 -0.06579
 O30 O 0.41187 0.36867 0.46711
 O31 O 0.58081 0.63118 0.47512
 O32 O 0.37647 0.58314 0.45844
 O33 O 0.61654 0.41932 0.45793
 O34 O 0.47136 0.62550 0.43870
 O35 O 0.52313 0.38265 0.43067
 O36 O 0.60991 0.53815 0.43871
 O37 O 0.38303 0.46520 0.43495
 C38 C 0.38426 0.40153 0.43094
 C39 C 0.60497 0.60184 0.43611
 C40 C 0.41268 0.61651 0.42675
 C41 C 0.58299 0.39229 0.42217
 O42 O 0.57105 0.35892 0.52821
 O43 O 0.41970 0.63629 0.53473
 O44 O 0.37034 0.42587 0.54085
 O45 O 0.62078 0.56714 0.54521
 O46 O 0.52996 0.61264 0.57247
 O47 O 0.46149 0.37695 0.56419
 O48 O 0.60516 0.44975 0.56417
 O49 O 0.38268 0.54182 0.56411
 Co50 Co 0.49235 0.38470 0.49773
 Co51 Co 0.50000 0.61371 0.50507
 Co52 Co 0.38882 0.50360 0.49964
 Co53 Co 0.60248 0.49407 0.50144
 O54 O 0.49581 0.49909 0.50092
 C55 C 0.59851 0.38637 0.56633
 C56 C 0.38824 0.60484 0.56949
 C57 C 0.40323 0.39239 0.57481
 C58 C 0.58890 0.59706 0.58103
 C59 C 0.16176 0.06801 0.16541
 C60 C 0.19300 0.09634 0.20936
 C61 C 0.18099 0.16576 0.22357
 C62 C 0.13352 0.20486 0.19532
 C63 C 0.10219 0.17658 0.15160
 C64 C 0.11736 0.10858 0.13532
 C65 C 0.21920 0.19626 0.26731
 C66 C 0.23581 0.26384 0.26796
 C67 C 0.27539 0.29700 0.30995
 C68 C 0.27586 0.37003 0.31227
 C69 C 0.31190 0.40412 0.35108
 C70 C 0.34856 0.36579 0.38841
 C71 C 0.34947 0.29280 0.38553
 C72 C 0.31346 0.25866 0.34666
 H73 H 0.17415 0.01530 0.15391
 H74 H 0.22858 0.06485 0.23105
 H75 H 0.12086 0.25753 0.20657
 H76 H 0.06736 0.20873 0.12969
 H77 H 0.23593 0.16113 0.29805
 H78 H 0.21964 0.29740 0.23593
 H79 H 0.24760 0.40095 0.28423
 H80 H 0.31050 0.46047 0.35218
 H81 H 0.37790 0.26197 0.41348
 H82 H 0.31645 0.20253 0.34552
 C83 C 0.89177 0.79906 0.14158
 C84 C 0.85762 0.76109 0.17974
 C85 C 0.79038 0.77469 0.18961
 C86 C 0.75723 0.82621 0.15977
 C87 C 0.79140 0.86407 0.12128
 C88 C 0.85903 0.85094 0.11199
 C89 C 0.75676 0.73311 0.23060
 C90 C 0.70405 0.75602 0.25773
 C91 C 0.67570 0.71547 0.30182
 C92 C 0.64713 0.75088 0.34435
 C93 C 0.62404 0.71400 0.38822
 C94 C 0.62866 0.64104 0.38989
 C95 C 0.65486 0.60547 0.34644
 C96 C 0.67791 0.64228 0.30268
 H97 H 0.94382 0.78747 0.13508
 H98 H 0.88401 0.72132 0.20200
 H99 H 0.70488 0.83663 0.16538
 H100 H 0.76489 0.90346 0.09875
 H101 H 0.77982 0.68400 0.24157
 H102 H 0.68491 0.80811 0.25088
 H103 H 0.64421 0.80722 0.34418
 H104 H 0.60304 0.74255 0.42093
 H105 H 0.65769 0.54912 0.34628
 H106 H 0.69727 0.61326 0.26962
 C107 C 0.91144 0.17689 0.84306
 C108 C 0.87886 0.20794 0.80049
 C109 C 0.80982 0.20292 0.79556
 C110 C 0.77367 0.16591 0.83394
 C111 C 0.80622 0.13516 0.87669
 C112 C 0.87526 0.14105 0.88190
 C113 C 0.77697 0.24117 0.75223
 C114 C 0.71737 0.22450 0.73319
 C115 C 0.68523 0.26663 0.69161
 C116 C 0.64532 0.23407 0.65418
 C117 C 0.61656 0.27298 0.61336
 C118 C 0.62662 0.34515 0.61003
 C119 C 0.66435 0.37802 0.64878
 C120 C 0.69335 0.33919 0.68922
 H121 H 0.96475 0.18221 0.84613
 H122 H 0.90761 0.23662 0.77156
 H123 H 0.72018 0.16255 0.83217
 H124 H 0.77722 0.10774 0.90612
 H125 H 0.80393 0.28407 0.73457
 H126 H 0.69280 0.17754 0.74640
 H127 H 0.63765 0.17834 0.65588
 H128 H 0.58689 0.24662 0.58430
 H129 H 0.67200 0.43376 0.64763
 H130 H 0.72179 0.36613 0.71872
 C131 C 0.15544 0.93674 0.83476
 C132 C 0.18753 0.90869 0.79081
 C133 C 0.18045 0.83807 0.77857
 C134 C 0.13706 0.79705 0.80904
 C135 C 0.10489 0.82506 0.85283
 C136 C 0.11504 0.89468 0.86693
 C137 C 0.21938 0.80846 0.73445
 C138 C 0.24063 0.74209 0.73475
 C139 C 0.28001 0.70954 0.69202
 C140 C 0.28228 0.63660 0.68994
 C141 C 0.31807 0.60284 0.65051
 C142 C 0.35295 0.64130 0.61233
 C143 C 0.35223 0.71430 0.61494
 C144 C 0.31613 0.74824 0.65443
 H145 H 0.16395 0.99074 0.84448
 H146 H 0.21987 0.94157 0.76744
 H147 H 0.12814 0.74318 0.79941
 H148 H 0.07329 0.79163 0.87639
 H149 H 0.23241 0.84314 0.70236
 H150 H 0.22811 0.70887 0.76792
 H151 H 0.25555 0.60548 0.71864
 H152 H 0.31803 0.54648 0.64976
 H153 H 0.37919 0.74517 0.58625
 H154 H 0.31749 0.80443 0.65550
 C155 C 0.25403 0.13812 0.92180
 C156 C 0.29149 0.17211 0.88269
 C157 C 0.26073 0.21527 0.84476
 C158 C 0.19165 0.22513 0.84778
 C159 C 0.15436 0.19147 0.88653
 C160 C 0.18444 0.14562 0.92326
 C161 C 0.30079 0.24411 0.80026
 C162 C 0.28028 0.29745 0.76942
 C163 C 0.31432 0.32133 0.72041
 C164 C 0.27846 0.36358 0.68485
 C165 C 0.30701 0.38627 0.63751
 C166 C 0.37251 0.36768 0.62466
 C167 C 0.40901 0.32642 0.66053
 C168 C 0.38036 0.30346 0.70785
 H169 H 0.27948 0.10389 0.94935
 H170 H 0.34462 0.16334 0.88131
 H171 H 0.16505 0.25608 0.81894
 H172 H 0.10108 0.19956 0.88605
 H173 H 0.34734 0.21815 0.79191
 H174 H 0.23444 0.32409 0.77893
 H175 H 0.22769 0.37859 0.69345
 H176 H 0.27779 0.41854 0.61103
 H177 H 0.45995 0.31190 0.65208
 H178 H 0.41058 0.27258 0.73439
 C179 C 0.80897 0.90138 0.85961
 C180 C 0.77034 0.86732 0.82257
 C181 C 0.77454 0.79491 0.81681
 C182 C 0.81925 0.75710 0.84904
 C183 C 0.85827 0.79144 0.88628
 C184 C 0.85298 0.86393 0.89232
 C185 C 0.73019 0.76208 0.77760
 C186 C 0.73816 0.69749 0.75887
 C187 C 0.69641 0.66943 0.71598
 C188 C 0.72423 0.61972 0.68223
 C189 C 0.68858 0.59543 0.63916
 C190 C 0.62373 0.61955 0.62918
 C191 C 0.59443 0.66675 0.66436
 C192 C 0.63041 0.69154 0.70737
 H193 H 0.80360 0.95732 0.86300
 H194 H 0.73658 0.89791 0.79842
 H195 H 0.82331 0.70109 0.84674
 H196 H 0.89129 0.76111 0.91119
 H197 H 0.69138 0.79480 0.76111
 H198 H 0.77995 0.66606 0.77160
 H199 H 0.77453 0.60112 0.68828
 H200 H 0.71232 0.55841 0.61314
 H201 H 0.54428 0.68561 0.65802
 H202 H 0.60641 0.72796 0.73366
 C203 C 0.13886 0.78367 0.10609
 C204 C 0.17273 0.74529 0.14442
 C205 C 0.23665 0.76422 0.16003
 C206 C 0.26783 0.82026 0.13369
 C207 C 0.23396 0.85833 0.09439
 C208 C 0.16845 0.84131 0.08131
 C209 C 0.26702 0.72485 0.20467
 C210 C 0.31391 0.75035 0.23636
 C211 C 0.33810 0.71314 0.28433
 C212 C 0.40194 0.72759 0.30281
 C213 C 0.42591 0.69581 0.34873
 C214 C 0.38614 0.64951 0.37802
 C215 C 0.32192 0.63529 0.35992
 C216 C 0.29808 0.66673 0.31355
 H217 H 0.08836 0.76936 0.09695
 H218 H 0.14765 0.70219 0.16353
 H219 H 0.31781 0.83533 0.14358
 H220 H 0.25771 0.90279 0.07608
 H221 H 0.24656 0.67413 0.21355
 H222 H 0.33539 0.80059 0.22761
 H223 H 0.43357 0.76351 0.28149
 H224 H 0.47564 0.70807 0.36153
 H225 H 0.29011 0.60000 0.38164
 H226 H 0.24780 0.65584 0.30156
 C227 C 0.89186 0.22623 0.11423
 C228 C 0.86000 0.26709 0.15240
 C229 C 0.81179 0.23818 0.18594
 C230 C 0.79846 0.16676 0.18241
 C231 C 0.83009 0.12593 0.14468
 C232 C 0.87648 0.15505 0.10909
 C233 C 0.77789 0.28240 0.22563
 C234 C 0.71641 0.26867 0.24347
 C235 C 0.68251 0.30681 0.28667
 C236 C 0.61409 0.29681 0.29425
 C237 C 0.58107 0.32609 0.33736
 C238 C 0.61600 0.36565 0.37414
 C239 C 0.68406 0.37730 0.36586
 C240 C 0.71705 0.34810 0.32279
 H241 H 0.92774 0.25086 0.08840
 H242 H 0.87219 0.32176 0.15510
 H243 H 0.76399 0.14178 0.20915
 H244 H 0.81728 0.07127 0.14334
 H245 H 0.80394 0.32781 0.23921
 H246 H 0.68885 0.22692 0.22560
 H247 H 0.58624 0.26502 0.26724
 H248 H 0.52860 0.31630 0.34258
 H249 H 0.71234 0.40775 0.39346
 H250 H 0.76990 0.35609 0.31931
   
