data_POSCAR
  _audit_creation_date              2014-09-24
  _audit_creation_method            'ToBaCCo'
  _symmetry_space_group_name_H-M    'P1'
  _symmetry_Int_Tables_number       1
  _symmetry_cell_setting            triclinic
  loop_
  _symmetry_equiv_pos_as_xyz
 x,y,z
_cell_length_a 31.8888
_cell_length_b 31.5742
_cell_length_c 75.2512
_cell_angle_alpha 86.944900
_cell_angle_beta 91.745800
_cell_angle_gamma 120.799500
loop_
  _atom_site_label
  _atom_site_type_symbol
  _atom_site_fract_x
  _atom_site_fract_y
  _atom_site_fract_z
C1 C 0.04816 0.08835 0.52497
 H2 H 0.08066 0.08583 0.52432
 C3 C 0.04853 0.12447 0.53495
 H4 H 0.08120 0.14901 0.54226
 C5 C -0.03350 0.05982 0.51588
 H6 H -0.06487 0.03546 0.50802
 C7 C -0.03478 0.09544 0.52577
 H8 H -0.06741 0.09795 0.52552
 N9 N 0.00759 0.05688 0.51572
 C10 C 0.01904 -0.07154 0.50618
 H11 H 0.01419 -0.07252 0.49189
 C12 C 0.01811 -0.11122 0.51567
 H13 H 0.01292 -0.14263 0.50865
 C14 C 0.02885 -0.03072 0.53289
 H15 H 0.03127 -0.00020 0.53963
 C16 C 0.02930 -0.06912 0.54286
 H17 H 0.03240 -0.06772 0.55722
 Zn18 Zn 0.01448 0.01387 0.50108
 N19 N 0.02348 -0.03276 0.51489
 C20 C 0.10832 0.04894 0.48544
 N21 N 0.06899 0.05465 0.48647
 C22 C 0.06748 0.09232 0.47748
 C23 C 0.10662 0.12640 0.46695
 C24 C 0.14839 0.08222 0.47492
 C25 C -0.08526 -0.05375 0.49429
 C26 C -0.12492 -0.08685 0.48406
 C27 C -0.07290 -0.05576 0.45821
 C28 C -0.03481 -0.02271 0.46888
 N29 N -0.04123 -0.02284 0.48662
 H30 H 0.10884 0.01896 0.49289
 H31 H 0.03575 0.09597 0.47862
 H32 H 0.10449 0.15593 0.45980
 H33 H 0.17974 0.07768 0.47431
 H34 H -0.08907 -0.05420 0.50855
 H35 H -0.15820 -0.11232 0.49108
 H36 H -0.06578 -0.05305 0.44411
 H37 H 0.00056 0.00174 0.46299
 C38 C 0.02278 -0.11039 0.53425
 C39 C 0.00682 0.12866 0.53533
 C40 C -0.11907 -0.09003 0.46566
 C41 C 0.14792 0.12183 0.46565
 C42 C 1.10854 0.05173 0.14067
 H43 H 1.11230 0.08780 0.14049
 C44 C 1.14166 0.04501 0.13142
 H45 H 1.17045 0.07604 0.12392
 C46 C 1.06570 -0.03249 0.15052
 H47 H 1.03649 -0.06232 0.15822
 C48 C 1.09807 -0.04098 0.14131
 H49 H 1.09337 -0.07750 0.14193
 N50 N 1.07124 0.01327 0.14983
 C51 C 0.96286 0.05790 0.15114
 H52 H 0.96053 0.06136 0.16525
 C53 C 0.92931 0.06052 0.13940
 H54 H 0.90134 0.06617 0.14459
 C55 C 0.99929 0.04166 0.12748
 H56 H 1.02524 0.03238 0.12292
 C57 C 0.96671 0.04417 0.11532
 H58 H 0.96899 0.03812 0.10144
 Zn59 Zn 1.03114 0.03046 0.16184
 N60 N 0.99620 0.04747 0.14508
 C61 C 1.08057 0.12944 0.17451
 N62 N 1.07403 0.08330 0.17602
 C63 C 1.10110 0.07232 0.18752
 C64 C 1.13663 0.10832 0.19809
 C65 C 1.11613 0.16694 0.18489
 C66 C 0.95102 -0.06553 0.16942
 C67 C 0.91186 -0.10178 0.17961
 C68 C 0.94078 -0.04717 0.20414
 C69 C 0.97968 -0.01243 0.19364
 N70 N 0.98394 -0.02188 0.17656
 H71 H 1.05900 0.13738 0.16507
 H72 H 1.09520 0.03534 0.18834
 H73 H 1.15737 0.09842 0.20727
 H74 H 1.12178 0.20380 0.18334
 H75 H 0.95424 -0.07150 0.15563
 H76 H 0.88525 -0.13596 0.17370
 H77 H 0.93726 -0.03861 0.21757
 H78 H 1.00511 0.02300 0.19892
 C79 C 0.93008 0.05204 0.12130
 C80 C 1.13673 -0.00178 0.13164
 C81 C 0.90602 -0.09215 0.19706
 C82 C 1.14511 0.15659 0.19671
 C83 C -0.00232 0.90630 0.86211
 H84 H -0.03406 0.87029 0.86010
 C85 C 0.03452 0.91090 0.87369
 H86 H 0.03099 0.87809 0.88045
 C87 C 0.04106 0.99242 0.85523
 H88 H 0.04342 1.02396 0.84792
 C89 C 0.07899 0.99875 0.86675
 H90 H 0.11012 1.03542 0.86840
 N91 N 0.00113 0.94674 0.85336
 C92 C -0.14471 0.92094 0.84372
 H93 H -0.14408 0.92756 0.82945
 C94 C -0.18267 0.91736 0.85376
 H95 H -0.21171 0.91953 0.84677
 C96 C -0.10698 0.91044 0.86976
 H97 H -0.07659 0.90965 0.87610
 C98 C -0.14460 0.90557 0.88027
 H99 H -0.14120 0.90186 0.89452
 Zn100 Zn -0.05193 0.93431 0.83814
 N101 N -0.10736 0.91846 0.85186
 C102 C -0.10806 0.84083 0.82194
 N103 N -0.06325 0.88161 0.82412
 C104 C -0.02289 0.88664 0.81640
 C105 C -0.02652 0.85000 0.80587
 C106 C -0.11344 0.80317 0.81135
 C107 C -0.03337 1.03089 0.83012
 C108 C -0.03113 1.06897 0.81900
 C109 C -0.03762 1.02234 0.79357
 C110 C -0.03967 0.98535 0.80512
 N111 N -0.03827 0.98981 0.82303
 H112 H -0.13955 0.83759 0.82833
 H113 H 0.01225 0.91950 0.81839
 H114 H 0.00603 0.85520 0.79962
 H115 H -0.14921 0.77080 0.80970
 H116 H -0.03340 1.03307 0.84441
 H117 H -0.02918 1.10056 0.82483
 H118 H -0.03969 1.01763 0.77936
 H119 H -0.04441 0.95222 0.79968
 C120 C -0.18284 0.91042 0.87246
 C121 C 0.07569 0.95762 0.87628
 C122 C -0.03451 1.06426 0.80048
 C123 C -0.07218 0.80755 0.80323
 C124 C 0.39768 0.04623 0.00936
 C125 C 0.39201 0.04305 -0.00875
 C126 C 0.42246 0.02725 -0.01449
 N127 N 0.44682 0.02111 -0.00054
 C128 C 0.43181 0.03284 0.01404
 C129 C 0.42439 0.01477 -0.03208
 C130 C 0.45909 0.00308 -0.03761
 C131 C 0.45489 -0.02204 -0.05274
 C132 C 0.49655 -0.02461 -0.05362
 C133 C 0.52526 -0.00056 -0.03910
 N134 N 0.50218 0.01634 -0.02944
 C135 C 0.57261 0.00755 -0.03564
 C136 C 0.59732 0.02473 -0.01933
 C137 C 0.64658 0.04228 -0.01651
 C138 C 0.65523 0.05150 0.00124
 C139 C 0.61084 0.03881 0.00870
 N140 N 0.57552 0.02253 -0.00391
 C141 C 0.60260 0.03833 0.02707
 C142 C 0.55784 0.02945 0.03386
 C143 C 0.54301 0.01576 0.05141
 C144 C 0.49845 0.01241 0.05265
 C145 C 0.48747 0.02449 0.03585
 N146 N 0.52397 0.03500 0.02450
 C147 C 0.44602 0.02835 0.03165
 H148 H 0.37875 0.05703 0.01809
 H149 H 0.36769 0.05080 -0.01672
 H150 H 0.52809 0.05018 0.01161
 H151 H 0.42480 -0.03720 -0.06211
 H152 H 0.50481 -0.04199 -0.06388
 H153 H 0.67343 0.04764 -0.02622
 H154 H 0.69008 0.06526 0.00792
 H155 H 0.47681 0.00257 0.06461
 H156 H 0.51706 0.03999 -0.01896
 H157 H 0.56220 0.00873 0.06219
 C158 C 0.00589 0.35908 0.66074
 C159 C 0.00574 0.35642 0.67899
 C160 C -0.00679 0.38985 0.68433
 N161 N -0.01388 0.41309 0.66997
 C162 C -0.00587 0.39453 0.65554
 C163 C -0.01477 0.39600 0.70213
 C164 C -0.02436 0.43273 0.70710
 C165 C -0.04431 0.43256 0.72324
 C166 C -0.04601 0.47519 0.72317
 C167 C -0.02678 0.50039 0.70703
 N168 N -0.01351 0.47429 0.69735
 C169 C -0.01919 0.54771 0.70222
 C170 C -0.00727 0.56943 0.68482
 C171 C 0.00633 0.61789 0.68028
 C172 C 0.01290 0.62386 0.66221
 C173 C 0.00323 0.57885 0.65625
 N174 N -0.00960 0.54552 0.67010
 C175 C 0.00317 0.56848 0.63816
 C176 C -0.00630 0.52230 0.63249
 C177 C -0.01782 0.50671 0.61519
 C178 C -0.02285 0.46076 0.61517
 C179 C -0.01331 0.44982 0.63236
 N180 N -0.00293 0.48769 0.64278
 C181 C -0.01161 0.40704 0.63770
 H182 H 0.01392 0.33750 0.65226
 H183 H 0.01343 0.33219 0.68733
 H184 H 0.01083 0.49212 0.65565
 H185 H -0.05639 0.40461 0.73395
 H186 H -0.05947 0.48654 0.73387
 H187 H 0.01087 0.64601 0.68906
 H188 H 0.02290 0.65741 0.65438
 H189 H -0.03167 0.43838 0.60369
 H190 H 0.00694 0.48671 0.68575
 H191 H -0.02216 0.52622 0.60370
 C192 C 0.37316 0.41279 0.34436
 C193 C 0.36926 0.41412 0.32617
 C194 C 0.41521 0.44869 0.31973
 N195 N 0.44707 0.46809 0.33338
 C196 C 0.42140 0.44640 0.34846
 C197 C 0.42775 0.45881 0.30150
 C198 C 0.47436 0.49579 0.29521
 C199 C 0.49066 0.50048 0.27792
 C200 C 0.53665 0.54157 0.27703
 C201 C 0.54722 0.56122 0.29374
 N202 N 0.50876 0.53344 0.30466
 C203 C 0.59013 0.60563 0.29808
 C204 C 0.60264 0.62257 0.31555
 C205 C 0.64048 0.66897 0.31982
 C206 C 0.64235 0.66973 0.33801
 C207 C 0.60630 0.62342 0.34432
 N208 N 0.58206 0.59469 0.33055
 C209 C 0.59899 0.60726 0.36247
 C210 C 0.55945 0.56117 0.36855
 C211 C 0.55690 0.53909 0.38523
 C212 C 0.51252 0.49580 0.38613
 C213 C 0.48908 0.49259 0.36999
 N214 N 0.51781 0.53278 0.35940
 C215 C 0.44139 0.45421 0.36584
 H216 H 0.34386 0.38932 0.35351
 H217 H 0.33646 0.39156 0.31859
 H218 H 0.50752 0.54285 0.34743
 H219 H 0.47136 0.47716 0.26697
 H220 H 0.55921 0.55587 0.26525
 H221 H 0.66456 0.69918 0.31083
 H222 H 0.66799 0.70071 0.34568
 H223 H 0.49902 0.46969 0.39742
 H224 H 0.50405 0.54258 0.31718
 H225 H 0.58422 0.55266 0.39566
 C226 C 0.05046 0.25263 0.55500
 C227 C 0.01089 0.24319 0.56591
 C228 C -0.03101 0.19506 0.56605
 C229 C -0.03258 0.15829 0.55581
 C230 C 0.00740 0.16812 0.54543
 C231 C 0.04860 0.21571 0.54501
 C232 C -0.07095 0.18352 0.57659
 C233 C -0.07000 0.21817 0.58745
 C234 C -0.02881 0.26626 0.58820
 C235 C 0.01185 0.27938 0.57692
 C236 C 0.05226 0.32806 0.57716
 C237 C 0.05390 0.36221 0.58845
 C238 C 0.01554 0.34948 0.60002
 C239 C -0.02665 0.30152 0.59999
 C240 C -0.06440 0.29063 0.61212
 C241 C -0.05969 0.32544 0.62393
 C242 C -0.01761 0.37217 0.62401
 C243 C 0.01964 0.38433 0.61189
 H244 H 0.08377 0.28789 0.55399
 H245 H -0.06451 0.12145 0.55634
 H246 H 0.07970 0.22456 0.53685
 H247 H -0.10324 0.14695 0.57664
 H248 H -0.10245 0.20581 0.59515
 H249 H 0.08364 0.34122 0.56876
 H250 H 0.08599 0.39893 0.58829
 H251 H -0.09767 0.25536 0.61316
 H252 H -0.08874 0.31557 0.63330
 H253 H 0.05237 0.42057 0.61207
 C254 C 0.79402 0.85698 0.22581
 C255 C 0.78091 0.80714 0.22913
 C256 C 0.81026 0.79106 0.22148
 C257 C 0.84997 0.82345 0.21052
 C258 C 0.86252 0.87269 0.20761
 C259 C 0.83429 0.88908 0.21533
 C260 C 0.80044 0.74307 0.22510
 C261 C 0.76341 0.71115 0.23676
 C262 C 0.73369 0.72563 0.24494
 C263 C 0.74080 0.77336 0.24025
 C264 C 0.70744 0.78564 0.24674
 C265 C 0.67012 0.75364 0.25824
 C266 C 0.66515 0.70868 0.26408
 C267 C 0.69694 0.69397 0.25762
 C268 C 0.69166 0.64894 0.26462
 C269 C 0.65657 0.62026 0.27752
 C270 C 0.62530 0.63504 0.28364
 C271 C 0.62910 0.67877 0.27668
 H272 H 0.77498 0.87285 0.23160
 H273 H 0.87224 0.81088 0.20474
 H274 H 0.84356 0.92712 0.21325
 H275 H 0.82236 0.73035 0.21916
 H276 H 0.75835 0.67480 0.23885
 H277 H 0.70862 0.81958 0.24289
 H278 H 0.64554 0.76477 0.26294
 H279 H 0.71518 0.63572 0.26093
 H280 H 0.65420 0.58663 0.28296
 H281 H 0.60498 0.69025 0.28159
 C282 C 0.13771 -0.06203 -0.08311
 C283 C 0.18793 -0.03233 -0.08732
 C284 C 0.20050 -0.00361 -0.10354
 C285 C 0.16401 -0.00630 -0.11523
 C286 C 0.11450 -0.03722 -0.11106
 C287 C 0.10190 -0.06438 -0.09479
 C288 C 0.24940 0.02736 -0.10812
 C289 C 0.28640 0.03081 -0.09695
 C290 C 0.27598 0.00271 -0.08073
 C291 C 0.22588 -0.03007 -0.07599
 C292 C 0.21535 -0.06006 -0.06023
 C293 C 0.25219 -0.05749 -0.04924
 C294 C 0.30104 -0.02479 -0.05336
 C295 C 0.31392 0.00596 -0.06911
 C296 C 0.36433 0.03892 -0.07242
 C297 C 0.39988 0.04124 -0.06052
 C298 C 0.38655 0.01089 -0.04503
 C299 C 0.33714 -0.02252 -0.04165
 H300 H 0.12462 -0.08371 -0.07084
 H301 H 0.17420 0.01488 -0.12779
 H302 H 0.06394 -0.08754 -0.09101
 H303 H 0.25927 0.04936 -0.12051
 H304 H 0.32302 0.05555 -0.10161
 H305 H 0.17876 -0.08670 -0.05603
 H306 H 0.24222 -0.08128 -0.03729
 H307 H 0.37766 0.06400 -0.08390
 H308 H 0.43805 0.06732 -0.06330
 H309 H 0.32688 -0.04628 -0.02967
 C310 C -0.03216 0.75928 0.55355
 C311 C 0.00303 0.76345 0.56639
 C312 C 0.04698 0.80976 0.56738
 C313 C 0.05332 0.85080 0.55689
 C314 C 0.01730 0.84616 0.54472
 C315 C -0.02487 0.80000 0.54288
 C316 C 0.08422 0.81496 0.57891
 C317 C 0.07906 0.77516 0.58949
 C318 C 0.03546 0.72873 0.58943
 C319 C -0.00385 0.72337 0.57820
 C320 C -0.04929 0.67885 0.57966
 C321 C -0.05617 0.64084 0.59163
 C322 C -0.01771 0.64477 0.60216
 C323 C 0.02915 0.68805 0.60078
 C324 C 0.06772 0.68867 0.61084
 C325 C 0.05927 0.64910 0.62244
 C326 C 0.01231 0.60799 0.62450
 C327 C -0.02601 0.60577 0.61424
 H328 H -0.06534 0.72491 0.55122
 H329 H 0.08644 0.88641 0.55808
 H330 H -0.05287 0.79568 0.53337
 H331 H 0.11791 0.85021 0.57973
 H332 H 0.10933 0.78257 0.59818
 H333 H -0.08110 0.67299 0.57222
 H334 H -0.09203 0.60785 0.59260
 H335 H 0.10492 0.71885 0.60988
 H336 H 0.08936 0.65096 0.63016
 H337 H -0.06235 0.57368 0.61576
 C338 C 0.26480 0.22935 0.22127
 C339 C 0.25777 0.26279 0.23069
 C340 C 0.21437 0.26394 0.22726
 C341 C 0.17817 0.23024 0.21584
 C342 C 0.18464 0.19536 0.20748
 C343 C 0.22885 0.19634 0.20994
 C344 C 0.20698 0.29818 0.23544
 C345 C 0.24166 0.33140 0.24701
 C346 C 0.28483 0.33083 0.25128
 C347 C 0.29230 0.29499 0.24335
 C348 C 0.33316 0.29133 0.24879
 C349 C 0.36611 0.32206 0.26127
 C350 C 0.36039 0.35832 0.26862
 C351 C 0.32022 0.36399 0.26356
 C352 C 0.31746 0.40283 0.27100
 C353 C 0.35250 0.43365 0.28317
 C354 C 0.39104 0.42665 0.28835
 C355 C 0.39480 0.38896 0.28109
 H356 H 0.29786 0.22799 0.22217
 H357 H 0.14432 0.23019 0.21391
 H358 H 0.23571 0.17118 0.20308
 H359 H 0.17395 0.29935 0.23287
 H360 H 0.23274 0.35620 0.25285
 H361 H 0.34004 0.26388 0.24405
 H362 H 0.39659 0.31744 0.26518
 H363 H 0.28922 0.41093 0.26752
 H364 H 0.34949 0.46303 0.28864
 H365 H 0.42497 0.38389 0.28509
 C366 C 0.73812 -0.10914 -0.08854
 C367 C 0.71768 -0.07965 -0.09349
 C368 C 0.72895 -0.05583 -0.11063
 C369 C 0.75960 -0.06133 -0.12215
 C370 C 0.78166 -0.08889 -0.11676
 C371 C 0.76950 -0.11333 -0.09987
 C372 C 0.71082 -0.02529 -0.11605
 C373 C 0.68336 -0.01610 -0.10458
 C374 C 0.67222 -0.03778 -0.08718
 C375 C 0.68784 -0.07179 -0.08183
 C376 C 0.67341 -0.09649 -0.06496
 C377 C 0.64671 -0.08673 -0.05337
 C378 C 0.63374 -0.05163 -0.05796
 C379 C 0.64612 -0.02657 -0.07491
 C380 C 0.63286 0.00960 -0.07863
 C381 C 0.60872 0.02027 -0.06600
 C382 C 0.59679 -0.00478 -0.04936
 C383 C 0.60892 -0.04103 -0.04550
 H384 H 0.73178 -0.12858 -0.07581
 H385 H 0.76890 -0.04079 -0.13482
 H386 H 0.78348 -0.13685 -0.09530
 H387 H 0.71881 -0.00736 -0.12922
 H388 H 0.67107 0.00809 -0.10986
 H389 H 0.68185 -0.12410 -0.06027
 H390 H 0.63681 -0.10639 -0.04051
 H391 H 0.64159 0.03118 -0.09098
 H392 H 0.59982 0.04866 -0.06913
 H393 H 0.59960 -0.06045 -0.03258
 C394 C 0.18687 -0.05354 0.09962
 C395 C 0.23702 -0.01643 0.09870
 C396 C 0.25384 0.02338 0.11018
 C397 C 0.22135 0.02660 0.12141
 C398 C 0.17149 -0.00906 0.12144
 C399 C 0.15482 -0.04969 0.11078
 C400 C 0.30281 0.06057 0.11014
 C401 C 0.33553 0.06044 0.09846
 C402 C 0.32050 0.02296 0.08618
 C403 C 0.27065 -0.01673 0.08656
 C404 C 0.25588 -0.05473 0.07451
 C405 C 0.28796 -0.05333 0.06212
 C406 C 0.33605 -0.01421 0.06119
 C407 C 0.35342 0.02428 0.07331
 C408 C 0.40282 0.06302 0.07171
 C409 C 0.43286 0.06380 0.05842
 C410 C 0.41490 0.02615 0.04637
 C411 C 0.36671 -0.01305 0.04794
 H412 H 0.17083 -0.08551 0.09165
 H413 H 0.23478 0.05767 0.12992
 H414 H 0.11645 -0.07778 0.11056
 H415 H 0.31592 0.09073 0.11906
 H416 H 0.37247 0.09086 0.09931
 H417 H 0.21937 -0.08611 0.07412
 H418 H 0.27469 -0.08301 0.05298
 H419 H 0.41941 0.09372 0.08030
 H420 H 0.47014 0.09437 0.05734
 H421 H 0.35297 -0.04235 0.03860
 C422 C 0.75777 0.81524 0.45012
 C423 C 0.76860 0.79968 0.43451
 C424 C 0.81836 0.82115 0.42999
 C425 C 0.85513 0.85837 0.44013
 C426 C 0.84440 0.87449 0.45562
 C427 C 0.79473 0.85129 0.46047
 C428 C 0.83157 0.80512 0.41540
 C429 C 0.79648 0.76785 0.40521
 C430 C 0.74628 0.74579 0.40892
 C431 C 0.73197 0.76327 0.42339
 C432 C 0.68170 0.74486 0.42588
 C433 C 0.64667 0.71081 0.41460
 C434 C 0.66003 0.69235 0.40080
 C435 C 0.70989 0.70817 0.39818
 C436 C 0.72121 0.68560 0.38485
 C437 C 0.68493 0.65163 0.37382
 C438 C 0.63637 0.63925 0.37558
 C439 C 0.62387 0.65868 0.38940
 H440 H 0.72103 0.79969 0.45489
 H441 H 0.89256 0.87203 0.43636
 H442 H 0.78325 0.86230 0.47185
 H443 H 0.86965 0.82144 0.41184
 H444 H 0.80993 0.75841 0.39403
 H445 H 0.66826 0.75755 0.43606
 H446 H 0.60861 0.69875 0.41673
 H447 H 0.75765 0.69298 0.38271
 H448 H 0.69494 0.63573 0.36353
 H449 H 0.58605 0.64828 0.39101
 C450 C -0.07625 0.11857 0.76290
 C451 C -0.04545 0.17008 0.76462
 C452 C -0.01058 0.18613 0.77864
 C453 C -0.00747 0.15174 0.79044
 C454 C -0.03806 0.10096 0.78837
 C455 C -0.07248 0.08490 0.77456
 C456 C 0.02136 0.23639 0.78072
 C457 C 0.02039 0.27134 0.76898
 C458 C -0.01320 0.25741 0.75468
 C459 C -0.04758 0.20597 0.75277
 C460 C -0.08297 0.19212 0.73909
 C461 C -0.08382 0.22689 0.72728
 C462 C -0.04939 0.27684 0.72847
 C463 C -0.01359 0.29311 0.74218
 C464 C 0.02080 0.34443 0.74254
 C465 C 0.01982 0.37756 0.72971
 C466 C -0.01532 0.36084 0.71619
 C467 C -0.05031 0.31060 0.71580
 H468 H -0.10330 0.10280 0.75256
 H469 H 0.01956 0.16450 0.80103
 H470 H -0.09705 0.04583 0.77282
 H471 H 0.04789 0.24892 0.79146
 H472 H 0.04645 0.30925 0.77160
 H473 H -0.11108 0.15446 0.73715
 H474 H -0.11151 0.21437 0.71694
 H475 H 0.04955 0.36022 0.75230
 H476 H 0.04711 0.41644 0.73017
 H477 H -0.07773 0.29779 0.70535
 C478 C 0.83188 0.00200 0.08579
 C479 C 0.81226 0.03330 0.08609
 C480 C 0.83348 0.07226 0.09808
 C481 C 0.87192 0.07853 0.10947
 C482 C 0.89049 0.04685 0.10903
 C483 C 0.87008 0.00872 0.09707
 C484 C 0.81627 0.10480 0.09866
 C485 C 0.77864 0.09996 0.08753
 C486 C 0.75610 0.06179 0.07537
 C487 C 0.77266 0.02738 0.07487
 C488 C 0.74884 -0.01203 0.06326
 C489 C 0.71095 -0.01726 0.05227
 C490 C 0.69525 0.01654 0.05225
 C491 C 0.71744 0.05666 0.06374
 C492 C 0.70009 0.09009 0.06292
 C493 C 0.66277 0.08384 0.05115
 C494 C 0.64149 0.04425 0.03987
 C495 C 0.65749 0.01043 0.04063
 H496 H 0.81885 -0.02805 0.07699
 H497 H 0.88775 0.10843 0.11857
 H498 H 0.88314 -0.01683 0.09662
 H499 H 0.83224 0.13460 0.10781
 H500 H 0.76774 0.12672 0.08894
 H501 H 0.75823 -0.04008 0.06238
 H502 H 0.69391 -0.04811 0.04357
 H503 H 0.71486 0.12183 0.07099
 H504 H 0.65071 0.11032 0.05071
 H505 H 0.64069 -0.02048 0.03195
 C506 C 0.24942 0.17784 0.43147
 C507 C 0.26472 0.22871 0.43129
 C508 C 0.24276 0.24366 0.44370
 C509 C 0.20595 0.20884 0.45515
 C510 C 0.18990 0.15852 0.45461
 C511 C 0.21265 0.14350 0.44294
 C512 C 0.25691 0.29321 0.44447
 C513 C 0.29154 0.32853 0.43285
 C514 C 0.31339 0.31566 0.41977
 C515 C 0.30018 0.26499 0.41910
 C516 C 0.32203 0.25215 0.40600
 C517 C 0.35453 0.28704 0.39370
 C518 C 0.36693 0.33621 0.39393
 C519 C 0.34725 0.35160 0.40710
 C520 C 0.36172 0.40228 0.40677
 C521 C 0.39292 0.43543 0.39361
 C522 C 0.41086 0.41942 0.38045
 C523 C 0.39842 0.37001 0.38081
 H524 H 0.26455 0.16308 0.42279
 H525 H 0.18926 0.22093 0.46444
 H526 H 0.20093 0.10479 0.44229
 H527 H 0.24054 0.30482 0.45407
 H528 H 0.29979 0.36572 0.43437
 H529 H 0.31427 0.21504 0.40466
 H530 H 0.36973 0.27520 0.38372
 H531 H 0.34931 0.41764 0.41631
 H532 H 0.40248 0.47369 0.39351
 H533 H 0.41270 0.35780 0.37061
 C534 C -0.11354 0.71503 0.76705
 C535 C -0.07679 0.70231 0.76754
 C536 C -0.04076 0.72235 0.78107
 C537 C -0.04078 0.75493 0.79302
 C538 C -0.07605 0.76882 0.79181
 C539 C -0.11298 0.74777 0.77899
 C540 C -0.00417 0.71068 0.78248
 C541 C -0.00128 0.68067 0.77040
 C542 C -0.03499 0.66110 0.75623
 C543 C -0.07392 0.67136 0.75494
 C544 C -0.10810 0.65104 0.74094
 C545 C -0.10395 0.62271 0.72841
 C546 C -0.06568 0.61339 0.72922
 C547 C -0.03074 0.63208 0.74319
 C548 C 0.00745 0.62146 0.74330
 C549 C 0.01077 0.59403 0.73006
 C550 C -0.02363 0.57626 0.71633
 C551 C -0.06195 0.58571 0.71600
 H552 H -0.14277 0.70116 0.75744
 H553 H -0.01263 0.77026 0.80317
 H554 H -0.14067 0.75795 0.77778
 H555 H 0.02310 0.72548 0.79294
 H556 H 0.02834 0.67391 0.77253
 H557 H -0.13856 0.65663 0.73915
 H558 H -0.13087 0.60829 0.71782
 H559 H 0.03570 0.63403 0.75328
 H560 H 0.04059 0.58687 0.73045
 H561 H -0.08869 0.57165 0.70534
   
