data_POSCAR
  _audit_creation_date              2014-09-24
  _audit_creation_method            'ToBaCCo'
  _symmetry_space_group_name_H-M    'P1'
  _symmetry_Int_Tables_number       1
  _symmetry_cell_setting            triclinic
  loop_
  _symmetry_equiv_pos_as_xyz
 x,y,z
_cell_length_a 39.9838
_cell_length_b 39.9866
_cell_length_c 39.9762
_cell_angle_alpha 89.881800
_cell_angle_beta 90.118000
_cell_angle_gamma 89.919400
loop_
  _atom_site_label
  _atom_site_type_symbol
  _atom_site_fract_x
  _atom_site_fract_y
  _atom_site_fract_z
C1 C 0.16797 0.16870 0.20753
 N2 N 0.15396 0.19605 0.19300
 C3 C 0.16768 0.20932 0.16494
 N4 N 0.19537 0.19519 0.15136
 C5 C 0.20940 0.16784 0.16588
 N6 N 0.19566 0.15457 0.19394
 C7 C -0.16438 0.83358 0.21137
 N8 N -0.19244 0.84745 0.19810
 C9 C -0.20697 0.83359 0.17073
 N10 N -0.19338 0.80592 0.15659
 C11 C -0.16532 0.79204 0.16985
 N12 N -0.15080 0.80590 0.19721
 C13 C -0.17119 0.16550 -0.20935
 N14 N -0.19850 0.15102 -0.19540
 C15 C -0.21270 0.16469 -0.16781
 N16 N -0.19953 0.19279 -0.15412
 C17 C -0.17223 0.20727 -0.16807
 N18 N -0.15803 0.19360 -0.19565
 C19 C 0.16901 0.83444 -0.20883
 N20 N 0.15424 0.80675 -0.19592
 C21 C 0.16718 0.79187 -0.16822
 N22 N 0.19485 0.80475 -0.15337
 C23 C 0.20964 0.83244 -0.16627
 N24 N 0.19668 0.84730 -0.19397
 C25 C 0.16860 1.16809 0.79242
 N26 N 0.19595 1.15420 0.80707
 C27 C 0.20908 1.16800 0.83515
 N28 N 0.19481 1.19565 0.84865
 C29 C 0.16745 1.20956 0.83402
 N30 N 0.15432 1.19575 0.80592
 C31 C 0.83344 0.83589 0.78871
 N32 N 0.80578 0.84947 0.80288
 C33 C 0.79189 0.83493 0.83022
 N34 N 0.80573 0.80684 0.84344
 C35 C 0.83340 0.79323 0.82929
 N36 N 0.84728 0.80779 0.80195
 C37 C 0.16574 0.83025 1.21071
 N38 N 0.15119 0.80294 1.19682
 C39 C 0.16479 0.78868 1.16923
 N40 N 0.19288 0.80178 1.15547
 C41 C 0.20744 0.82908 1.16936
 N42 N 0.19383 0.84334 1.19694
 C43 C 0.83429 1.16903 1.20926
 N44 N 0.80659 1.15434 1.19627
 C45 C 0.79175 1.16740 1.16861
 N46 N 0.80468 1.19510 1.15386
 C47 C 0.83238 1.20980 1.16683
 N48 N 0.84721 1.19673 1.19451
 O49 O 0.45302 0.93588 0.94507
 O50 O 0.41626 0.96771 0.97561
 C51 C 0.42308 0.94469 0.95393
 O52 O 0.54748 0.93883 1.06445
 O53 O 0.58391 0.96937 1.03221
 C54 C 0.57733 0.94777 1.05546
 O55 O 0.45352 0.93544 1.06168
 O56 O 0.41658 0.96797 1.03185
 C57 C 0.42353 0.94455 1.05319
 O58 O 0.54702 0.93932 0.94191
 O59 O 0.58369 0.96959 0.97416
 C60 C 0.57694 0.94819 0.95083
 Zr61 Zr 0.49999 0.95476 0.96099
 O62 O 0.50404 0.90196 0.96132
 O63 O 0.49608 0.95485 0.90817
 Zr64 Zr 0.50031 0.95447 1.04560
 O65 O 0.50433 0.90167 1.04510
 O66 O 0.49680 0.95426 1.09843
 O67 O 0.47032 0.94797 1.00333
 O68 O 0.52924 0.94863 1.00324
 O69 O 0.54644 1.05540 0.94214
 O70 O 0.58342 1.02512 0.97425
 C71 C 0.57645 1.04667 0.95103
 O72 O 0.45279 1.05781 1.06151
 O73 O 0.41613 1.02560 1.03118
 C74 C 0.42287 1.04882 1.05270
 O75 O 0.54687 1.05508 1.06455
 O76 O 0.58361 1.02497 1.03228
 C77 C 0.57681 1.04645 1.05551
 O78 O 0.45246 1.05818 0.94538
 O79 O 0.41598 1.02571 0.97562
 C80 C 0.42260 1.04906 0.95414
 Zr81 Zr 0.49961 1.03946 0.96118
 O82 O 0.50316 1.09229 0.96170
 O83 O 0.49567 1.03980 0.90836
 Zr84 Zr 0.49988 1.03910 1.04575
 O85 O 0.50339 1.09192 1.04579
 O86 O 0.49626 1.03864 1.09858
 Zr87 Zr 0.45022 0.99675 1.00339
 Zr88 Zr 0.54964 0.99712 1.00329
 O89 O 0.52876 1.04547 1.00343
 O90 O 0.46988 1.04568 1.00350
 O91 O 0.52954 0.99724 0.95448
 O92 O 0.47110 0.99668 1.05178
 O93 O 0.47078 0.99704 0.95498
 O94 O 0.52992 0.99687 1.05218
 H95 H 0.54455 0.92913 1.00318
 H96 H 0.45607 0.99664 1.07145
 H97 H 0.54384 1.06511 1.00342
 H98 H 0.45558 0.99707 0.93538
 H99 H 0.51526 0.96820 1.10716
 H100 H 0.51525 1.02531 1.10728
 H101 H 0.48473 1.10066 1.03205
 H102 H 0.48413 1.10090 0.97492
 H103 H 0.51412 1.02592 0.89953
 H104 H 0.51443 0.96890 0.89941
 H105 H 0.48512 0.89314 0.97456
 H106 H 0.48537 0.89295 1.03181
 O107 O 0.05474 0.54691 -0.06442
 O108 O 0.02455 0.58367 -0.03225
 C109 C 0.04607 0.57685 -0.05543
 O110 O -0.06496 0.45360 -0.06179
 O111 O -0.03252 0.41666 -0.03188
 C112 C -0.05590 0.42361 -0.05325
 O113 O -0.06147 0.54754 -0.06461
 O114 O -0.03100 0.58398 -0.03231
 C115 C -0.05254 0.57740 -0.05561
 O116 O 0.05740 0.45283 -0.06138
 O117 O 0.02509 0.41619 -0.03114
 C118 C 0.04835 0.42292 -0.05262
 Zr119 Zr 0.03878 0.49994 -0.04556
 O120 O 0.03877 0.49637 -0.09838
 O121 O 0.09161 0.50341 -0.04513
 Zr122 Zr -0.04593 0.50038 -0.04568
 O123 O -0.04605 0.49683 -0.09851
 O124 O -0.09873 0.50444 -0.04530
 O125 O -0.00347 0.52995 -0.05216
 O126 O -0.00368 0.47119 -0.05175
 O127 O 0.05748 0.45252 0.05478
 O128 O 0.02513 0.41603 0.02441
 C129 C 0.04840 0.42265 0.04597
 O130 O -0.06126 0.54716 0.05797
 O131 O -0.03093 0.58381 0.02575
 C132 C -0.05235 0.57707 0.04905
 O133 O -0.06466 0.45324 0.05508
 O134 O -0.03242 0.41648 0.02502
 C135 C -0.05561 0.42330 0.04652
 O136 O 0.05471 0.54654 0.05805
 O137 O 0.02455 0.58351 0.02582
 C138 C 0.04601 0.57654 0.04913
 Zr139 Zr 0.03889 0.49970 0.03891
 O140 O 0.03931 0.49578 0.09173
 O141 O 0.09173 0.50326 0.03835
 Zr142 Zr -0.04585 0.50012 0.03890
 O143 O -0.04614 0.49632 0.09172
 O144 O -0.09866 0.50417 0.03813
 Zr145 Zr -0.00335 0.54971 -0.00330
 Zr146 Zr -0.00377 0.45029 -0.00338
 O147 O -0.00356 0.47095 0.04502
 O148 O -0.00336 0.52963 0.04551
 O149 O 0.04518 0.46991 -0.00334
 O150 O -0.05186 0.52935 -0.00337
 O151 O 0.04501 0.52888 -0.00328
 O152 O -0.05256 0.47037 -0.00342
 H153 H -0.00369 0.45617 -0.07143
 H154 H -0.07135 0.54468 -0.00336
 H155 H -0.00351 0.45586 0.06471
 H156 H 0.06463 0.54398 -0.00322
 H157 H -0.10749 0.48553 -0.03197
 H158 H -0.10743 0.48491 0.02536
 H159 H -0.03178 0.51440 0.10052
 H160 H 0.02516 0.51403 0.10055
 H161 H 0.10036 0.48403 0.02544
 H162 H 0.10026 0.48442 -0.03177
 H163 H 0.02503 0.51502 -0.10715
 H164 H -0.03205 0.51525 -0.10723
 O165 O 1.06458 -0.05510 0.54732
 O166 O 1.03238 -0.02471 0.58387
 C167 C 1.05560 -0.04628 0.57721
 O168 O 1.06152 0.06413 0.45292
 O169 O 1.03118 0.03195 0.41627
 C170 C 1.05274 0.05513 0.42300
 O171 O 1.06450 0.06121 0.54699
 O172 O 1.03232 0.03093 0.58370
 C173 C 1.05552 0.05245 0.57693
 O174 O 1.06145 -0.05829 0.45328
 O175 O 1.03115 -0.02607 0.41642
 C176 C 1.05264 -0.04936 0.42330
 Zr177 Zr 1.04572 -0.03927 0.50022
 O178 O 1.09854 -0.03902 0.49652
 O179 O 1.04574 -0.09208 0.50415
 Zr180 Zr 1.04564 0.04535 0.49997
 O181 O 1.09846 0.04517 0.49636
 O182 O 1.04537 0.09817 0.50354
 O183 O 1.05221 0.00306 0.52993
 O184 O 1.05177 0.00300 0.47106
 O185 O 0.94525 -0.05812 0.45306
 O186 O 0.97555 -0.02600 0.41631
 C187 C 0.95402 -0.04919 0.42312
 O188 O 0.94199 0.06108 0.54672
 O189 O 0.97427 0.03087 0.58360
 C190 C 0.95092 0.05229 0.57670
 O191 O 0.94514 0.06421 0.45269
 O192 O 0.97552 0.03200 0.41614
 C193 C 0.95393 0.05521 0.42280
 O194 O 0.94220 -0.05499 0.54703
 O195 O 0.97436 -0.02468 0.58374
 C196 C 0.95115 -0.04619 0.57696
 Zr197 Zr 0.96109 -0.03923 0.50003
 O198 O 0.90827 -0.03906 0.49615
 O199 O 0.96133 -0.09204 0.50395
 Zr200 Zr 0.96104 0.04541 0.49979
 O201 O 0.90823 0.04555 0.49588
 O202 O 0.96139 0.09822 0.50346
 Zr203 Zr 1.00335 0.00309 0.54971
 Zr204 Zr 1.00336 0.00301 0.45029
 O205 O 0.95496 0.00307 0.47087
 O206 O 0.95451 0.00311 0.52969
 O207 O 1.00341 -0.04582 0.47034
 O208 O 1.00332 0.05149 0.52892
 O209 O 1.00340 -0.04533 0.52917
 O210 O 1.00334 0.05188 0.47003
 H211 H 1.07136 0.00295 0.45592
 H212 H 1.00327 0.07107 0.54407
 H213 H 0.93535 0.00307 0.45568
 H214 H 1.00341 -0.06491 0.54440
 H215 H 1.03185 0.10687 0.48469
 H216 H 0.97465 0.10693 0.48450
 H217 H 0.89945 0.03157 0.51430
 H218 H 0.89951 -0.02549 0.51485
 H219 H 0.97481 -0.10080 0.48520
 H220 H 1.03191 -0.10084 0.48560
 H221 H 1.10726 -0.02563 0.51539
 H222 H 1.10719 0.03152 0.51511
 C223 C 1.12637 0.12816 0.28892
 N224 N 1.13059 0.09514 0.29549
 N225 N 1.11630 0.08125 0.32219
 C226 C 1.09735 0.09995 0.34315
 N227 N 1.09312 0.13299 0.33660
 N228 N 1.10742 0.14689 0.30989
 C229 C 1.14142 0.14296 0.25990
 C230 C 1.15397 0.15515 0.23535
 C231 C 1.08163 0.08478 0.37161
 C232 C 1.06843 0.07155 0.39525
 C233 C 0.87916 -0.12440 0.29096
 N234 N 0.90705 -0.13807 0.30474
 N235 N 0.92177 -0.12365 0.33094
 C236 C 0.90903 -0.09514 0.34414
 N237 N 0.88114 -0.08149 0.33036
 N238 N 0.86643 -0.09590 0.30417
 C239 C 0.86350 -0.13969 0.26253
 C240 C 0.85036 -0.15234 0.23852
 C241 C 0.92502 -0.07936 0.37211
 C242 C 0.93834 -0.06578 0.39548
 C243 C 0.87293 0.12364 0.70900
 N244 N 0.86567 0.09178 0.69999
 N245 N 0.88065 0.07789 0.67370
 C246 C 0.90334 0.09544 0.65563
 N247 N 0.91059 0.12731 0.66464
 N248 N 0.89560 0.14120 0.69093
 C249 C 0.85716 0.13844 0.73759
 C250 C 0.84411 0.15082 0.76175
 C251 C 0.91985 0.08033 0.62764
 C252 C 0.93392 0.06756 0.60428
 C253 C 1.12950 -0.12120 0.71051
 N254 N 1.11466 -0.13974 0.68631
 N255 N 1.10076 -0.12494 0.65980
 C256 C 1.10129 -0.09116 0.65668
 N257 N 1.11615 -0.07262 0.68087
 N258 N 1.13005 -0.08742 0.70739
 C259 C 1.14394 -0.13711 0.73933
 C260 C 1.15583 -0.15050 0.76366
 C261 C 1.08568 -0.07523 0.62849
 C262 C 1.07217 -0.06194 0.60497
 C263 C 0.28987 1.12516 1.12476
 N264 N 0.30040 1.13474 1.09397
 N265 N 0.32684 1.12009 1.07995
 C266 C 0.34355 1.09544 1.09631
 N267 N 0.33302 1.08587 1.12710
 N268 N 0.30658 1.10051 1.14112
 C269 C 0.26114 1.14062 1.13965
 C270 C 0.23686 1.15347 1.15206
 C271 C 0.37169 1.07931 1.08102
 C272 C 0.39517 1.06553 1.06812
 C273 C 0.29020 0.87170 0.87810
 N274 N 0.29818 0.86340 0.91006
 N275 N 0.32464 0.87713 0.92499
 C276 C 0.34390 0.89957 0.90840
 N277 N 0.33592 0.90785 0.87645
 N278 N 0.30948 0.89412 0.86152
 C279 C 0.26142 0.85735 0.86218
 C280 C 0.23712 0.84553 0.84879
 C281 C 0.37200 0.91490 0.92462
 C282 C 0.39543 0.92823 0.93810
 C283 C 0.71147 0.87531 1.13025
 N284 N 0.70300 0.90732 1.13761
 N285 N 0.67626 0.92144 1.12346
 C286 C 0.65718 0.90398 1.10152
 N287 N 0.66564 0.87197 1.09418
 N288 N 0.69237 0.85785 1.10833
 C289 C 0.74058 0.86028 1.14502
 C290 C 0.76519 0.84770 1.15721
 C291 C 0.62880 0.91939 1.08573
 C292 C 0.60516 0.93234 1.07212
 C293 C 0.70795 1.12123 0.87459
 N294 N 0.69989 1.08915 0.86717
 N295 N 0.67381 1.07449 0.88182
 C296 C 0.65500 1.09149 0.90431
 N297 N 0.66306 1.12357 0.91171
 N298 N 0.68914 1.13822 0.89707
 C299 C 0.73629 1.13687 0.85917
 C300 C 0.76022 1.14999 0.84640
 C301 C 0.62720 1.07561 0.92044
 C302 C 0.60395 1.06235 0.93425
 C303 C 0.12434 0.29036 0.12054
 N304 N 0.13396 0.30032 0.08957
 N305 N 0.11935 0.32650 0.07489
 C306 C 0.09468 0.34351 0.09074
 N307 N 0.08507 0.33355 0.12171
 N308 N 0.09968 0.30737 0.13639
 C309 C 0.13980 0.26196 0.13621
 C310 C 0.15262 0.23799 0.14936
 C311 C 0.07868 0.37149 0.07485
 C312 C 0.06500 0.39491 0.06160
 C313 C -0.13101 0.29033 -0.12596
 N314 N -0.10777 0.30832 -0.14286
 N315 N -0.09356 0.33495 -0.12878
 C316 C -0.10216 0.34439 -0.09738
 N317 N -0.12541 0.32641 -0.08049
 N318 N -0.13963 0.29978 -0.09457
 C319 C -0.14581 0.26128 -0.14088
 C320 C -0.15800 0.23671 -0.15334
 C321 C -0.08628 0.37259 -0.08195
 C322 C -0.07261 0.39604 -0.06890
 C323 C 0.12199 0.70974 -0.12825
 N324 N 0.13884 0.68978 -0.10652
 N325 N 0.12390 0.66333 -0.09284
 C326 C 0.09166 0.65603 -0.10047
 N327 N 0.07481 0.67599 -0.12222
 N328 N 0.08976 0.70244 -0.13591
 C329 C 0.13795 0.73853 -0.14256
 C330 C 0.15133 0.76282 -0.15437
 C331 C 0.07542 0.62794 -0.08517
 C332 C 0.06193 0.60450 -0.07186
 C333 C -0.12366 0.71003 0.12613
 N334 N -0.13976 0.69411 0.10088
 N335 N -0.12588 0.66769 0.08611
 C336 C -0.09548 0.65637 0.09614
 N337 N -0.07937 0.67227 0.12139
 N338 N -0.09325 0.69870 0.13617
 C339 C -0.13841 0.73876 0.14171
 C340 C -0.15074 0.76302 0.15464
 C341 C -0.08033 0.62823 0.07987
 C342 C -0.06757 0.60476 0.06594
 C343 C 1.12896 0.12592 0.71087
 N344 N 1.13175 0.09246 0.70609
 N345 N 1.11797 0.07810 0.67936
 C346 C 1.10102 0.09678 0.65658
 N347 N 1.09825 0.13024 0.66134
 N348 N 1.11202 0.14460 0.68808
 C349 C 1.14331 0.14127 0.73996
 C350 C 1.15524 0.15399 0.76456
 C351 C 1.08550 0.08120 0.62822
 C352 C 1.07207 0.06808 0.60464
 C353 C 0.87550 -0.12058 0.70914
 N354 N 0.89873 -0.13723 0.69093
 N355 N 0.91321 -0.12258 0.66473
 C356 C 0.90489 -0.09086 0.65594
 N357 N 0.88164 -0.07422 0.67415
 N358 N 0.86716 -0.08886 0.70035
 C359 C 0.86021 -0.13623 0.73758
 C360 C 0.84755 -0.14937 0.76158
 C361 C 0.92082 -0.07500 0.62799
 C362 C 0.93449 -0.06178 0.60462
 C363 C 1.12460 -0.12612 0.29060
 N364 N 1.12119 -0.09239 0.29147
 N365 N 1.10720 -0.07756 0.31778
 C366 C 1.09619 -0.09601 0.34403
 N367 N 1.09960 -0.12976 0.34318
 N368 N 1.11360 -0.14459 0.31686
 C369 C 1.13946 -0.14204 0.26212
 C370 C 1.15186 -0.15518 0.23802
 C371 C 1.08093 -0.07997 0.37222
 C372 C 1.06804 -0.06618 0.39569
 C373 C 0.87852 0.12907 0.28977
 N374 N 0.91046 0.13716 0.29783
 N375 N 0.92532 0.12318 0.32428
 C376 C 0.90866 0.10070 0.34344
 N377 N 0.87672 0.09263 0.33538
 N378 N 0.86187 0.10660 0.30894
 C379 C 0.86267 0.14370 0.26100
 C380 C 0.84932 0.15572 0.23672
 C381 C 0.92478 0.08516 0.37157
 C382 C 0.93818 0.07171 0.39505
 C383 C 0.12453 0.28996 -0.12494
 N384 N 0.13678 0.30296 -0.09610
 N385 N 0.12214 0.32938 -0.08204
 C386 C 0.09482 0.34359 -0.09640
 N387 N 0.08259 0.33059 -0.12524
 N388 N 0.09722 0.30418 -0.13930
 C389 C 0.14003 0.26125 -0.13985
 C390 C 0.15296 0.23700 -0.15223
 C391 C 0.07876 0.37173 -0.08103
 C392 C 0.06502 0.39521 -0.06807
 C393 C -0.12808 0.29036 0.12271
 N394 N -0.14285 0.30437 0.09550
 N395 N -0.12912 0.33082 0.08056
 C396 C -0.10023 0.34406 0.09241
 N397 N -0.08548 0.33005 0.11963
 N398 N -0.09920 0.30361 0.13456
 C399 C -0.14256 0.26160 0.13856
 C400 C -0.15446 0.23730 0.15187
 C401 C -0.08510 0.37221 0.07610
 C402 C -0.07191 0.39566 0.06252
 C403 C -0.12487 0.71159 -0.13040
 N404 N -0.14319 0.69077 -0.11089
 N405 N -0.12906 0.66401 -0.09678
 C406 C -0.09620 0.65726 -0.10177
 N407 N -0.07789 0.67807 -0.12131
 N408 N -0.09201 0.70483 -0.13542
 C409 C -0.13994 0.74073 -0.14510
 C410 C -0.15253 0.76536 -0.15723
 C411 C -0.08084 0.62887 -0.08597
 C412 C -0.06793 0.60523 -0.07232
 C413 C 0.12038 0.70790 0.12597
 N414 N 0.08812 0.70013 0.13295
 N415 N 0.07348 0.67409 0.11822
 C416 C 0.09066 0.65504 0.09608
 N417 N 0.12292 0.66280 0.08912
 N418 N 0.13756 0.68884 0.10384
 C419 C 0.13602 0.73620 0.14146
 C420 C 0.14917 0.76009 0.15425
 C421 C 0.07482 0.62727 0.07987
 C422 C 0.06161 0.60404 0.06598
 C423 C 0.29014 1.12481 0.87966
 N424 N 0.30363 1.09657 0.86662
 N425 N 0.32984 1.08201 0.88128
 C426 C 0.34335 1.09523 0.90944
 N427 N 0.32988 1.12347 0.92249
 N428 N 0.30366 1.13804 0.90782
 C429 C 0.26173 1.14027 0.86401
 C430 C 0.23775 1.15304 0.85083
 C431 C 0.37139 1.07933 0.92533
 C432 C 0.39484 1.06567 0.93856
 C433 C 0.29039 0.87002 1.12677
 N434 N 0.30816 0.89375 1.14321
 N435 N 0.33474 0.90783 1.12892
 C436 C 0.34437 0.89860 1.09776
 N437 N 0.32662 0.87485 1.08132
 N438 N 0.30004 0.86077 1.09562
 C439 C 0.26138 0.85534 1.14190
 C440 C 0.23684 0.84324 1.15450
 C441 C 0.37254 0.91433 1.08211
 C442 C 0.39597 0.92791 1.06892
 C443 C 0.70965 1.12235 1.12843
 N444 N 0.69028 1.13889 1.10593
 N445 N 0.66385 1.12396 1.09220
 C446 C 0.65597 1.09204 1.10056
 N447 N 0.67532 1.07550 1.12307
 N448 N 0.70176 1.09044 1.13681
 C449 C 0.73841 1.13828 1.14280
 C450 C 0.76270 1.15162 1.15467
 C451 C 0.62789 1.07580 1.08523
 C452 C 0.60446 1.06230 1.07193
 C453 C 0.70990 0.87666 0.87394
 N454 N 0.69683 0.90565 0.86201
 N455 N 0.67040 0.91958 0.87675
 C456 C 0.65624 0.90493 0.90387
 N457 N 0.66930 0.87593 0.91579
 N458 N 0.69573 0.86200 0.90105
 C459 C 0.73862 0.86188 0.85836
 C460 C 0.76288 0.84953 0.84543
 C461 C 0.62810 0.92014 0.92006
 C462 C 0.60462 0.93294 0.93395
   
