data_POSCAR
  _audit_creation_date              2014-09-24
  _audit_creation_method            'ToBaCCo'
  _symmetry_space_group_name_H-M    'P1'
  _symmetry_Int_Tables_number       1
  _symmetry_cell_setting            triclinic
  loop_
  _symmetry_equiv_pos_as_xyz
 x,y,z
_cell_length_a 27.5702
_cell_length_b 27.5124
_cell_length_c 34.5652
_cell_angle_alpha 89.951200
_cell_angle_beta 90.083800
_cell_angle_gamma 120.630500
loop_
  _atom_site_label
  _atom_site_type_symbol
  _atom_site_fract_x
  _atom_site_fract_y
  _atom_site_fract_z
C1 C -0.02638 0.48651 1.25216
 C2 C 0.03098 0.51418 1.25235
 C3 C 0.06417 0.53199 1.28884
 C4 C 0.06382 0.52876 1.21587
 C5 C -0.05915 0.47148 1.21553
 C6 C -0.05978 0.46902 1.28843
 C7 C 0.05790 0.56663 1.31581
 C8 C 0.09090 0.58441 1.34940
 C9 C 0.13076 0.56806 1.35621
 C10 C 0.13723 0.53370 1.32930
 C11 C 0.10428 0.51596 1.29580
 C12 C 0.10447 0.58532 1.20830
 C13 C 0.13550 0.59998 1.17403
 C14 C 0.12650 0.55825 1.14708
 C15 C 0.08653 0.50160 1.15463
 C16 C 0.05543 0.48684 1.18898
 C17 C -0.10015 0.41488 1.20835
 C18 C -0.13185 0.39988 1.17432
 C19 C -0.12322 0.44129 1.14716
 C20 C -0.08271 0.49795 1.15422
 C21 C -0.05092 0.51306 1.18834
 C22 C -0.05402 0.43422 1.31560
 C23 C -0.08754 0.41644 1.34886
 C24 C -0.12728 0.43297 1.35508
 C25 C -0.13321 0.46752 1.32808
 C26 C -0.09978 0.48530 1.29489
 H27 H 0.02801 0.58039 1.31060
 H28 H 0.08561 0.61133 1.36975
 H29 H 0.16802 0.52086 1.33396
 H30 H 0.10999 0.48961 1.27523
 H31 H 0.11172 0.61814 1.22878
 H32 H 0.16656 0.64388 1.16857
 H33 H 0.02494 0.44286 1.19465
 H34 H -0.10732 0.38230 1.22905
 H35 H -0.16328 0.35597 1.16925
 H36 H -0.07601 0.53039 1.13352
 H37 H -0.02020 0.55707 1.19369
 H38 H -0.02419 0.42029 1.31075
 H39 H -0.08294 0.38935 1.36946
 H40 H -0.16402 0.48030 1.33253
 H41 H -0.10510 0.51178 1.27415
 H42 H 0.07959 0.46894 1.13409
 C43 C 0.51531 0.48753 1.24981
 C44 C 0.48632 0.51544 1.24978
 C45 C 0.46988 0.53190 1.28619
 C46 C 0.46912 0.53095 1.21330
 C47 C 0.53248 0.47184 1.21339
 C48 C 0.53148 0.47092 1.28627
 C49 C 0.41291 0.51394 1.29268
 C50 C 0.39653 0.52985 1.32629
 C51 C 0.43692 0.56418 1.35372
 C52 C 0.49391 0.58256 1.34740
 C53 C 0.51039 0.56666 1.31370
 C54 C 0.43478 0.48966 1.18607
 C55 C 0.41819 0.50518 1.15223
 C56 C 0.43544 0.56195 1.14550
 C57 C 0.46935 0.60312 1.17265
 C58 C 0.48596 0.58769 1.20642
 C59 C 0.56668 0.51292 1.18602
 C60 C 0.58335 0.49721 1.15234
 C61 C 0.56632 0.44043 1.14588
 C62 C 0.53251 0.39946 1.17315
 C63 C 0.51583 0.41508 1.20676
 C64 C 0.58842 0.48904 1.29311
 C65 C 0.60452 0.47297 1.32682
 C66 C 0.56385 0.43833 1.35395
 C67 C 0.50689 0.41980 1.34727
 C68 C 0.49070 0.43586 1.31348
 H69 H 0.38112 0.48743 1.27170
 H70 H 0.35238 0.51567 1.33077
 H71 H 0.52557 0.60953 1.36830
 H72 H 0.55466 0.58181 1.30889
 H73 H 0.42051 0.44555 1.19122
 H74 H 0.39150 0.47294 1.13155
 H75 H 0.51212 0.62002 1.22720
 H76 H 0.58083 0.55705 1.19095
 H77 H 0.60993 0.52932 1.13157
 H78 H 0.51939 0.35548 1.16857
 H79 H 0.48978 0.38287 1.22763
 H80 H 0.62038 0.51578 1.27234
 H81 H 0.64864 0.48724 1.33160
 H82 H 0.47505 0.39256 1.36794
 H83 H 0.44646 0.42060 1.30836
 H84 H 0.48260 0.64709 1.16784
 C85 C 0.51251 1.02936 1.24912
 C86 C 0.48487 0.97184 1.24926
 C87 C 0.47012 0.93900 1.28591
 C88 C 0.46760 0.93841 1.21291
 C89 C 0.52993 1.06266 1.21264
 C90 C 0.52713 1.06237 1.28561
 C91 C 0.51177 0.94758 1.31308
 C92 C 0.49703 0.91575 1.34719
 C93 C 0.44060 0.87475 1.35431
 C94 C 0.39908 0.86577 1.32714
 C95 C 0.41377 0.89756 1.29311
 C96 C 0.48426 0.89866 1.20637
 C97 C 0.46732 0.86571 1.17288
 C98 C 0.43322 0.87183 1.14562
 C99 C 0.41615 0.91119 1.15198
 C100 C 0.43308 0.94423 1.18556
 C101 C 0.51357 1.10262 1.20588
 C102 C 0.53094 1.13572 1.17244
 C103 C 0.56522 1.12958 1.14539
 C104 C 0.58192 1.08990 1.15197
 C105 C 0.56453 1.05673 1.18551
 C106 C 0.48536 1.05399 1.31251
 C107 C 0.50002 1.08577 1.34661
 C108 C 0.55648 1.12649 1.35395
 C109 C 0.59812 1.13532 1.32702
 C110 C 0.58350 1.10358 1.29301
 H111 H 0.55560 0.97861 1.30772
 H112 H 0.52969 0.92285 1.36778
 H113 H 0.35531 0.83399 1.33211
 H114 H 0.38113 0.89008 1.27242
 H115 H 0.51054 0.89328 1.22722
 H116 H 0.48054 0.83521 1.16835
 H117 H 0.41887 0.97387 1.19043
 H118 H 0.48725 1.10811 1.22655
 H119 H 0.51787 1.16637 1.16787
 H120 H 0.60877 1.08494 1.13144
 H121 H 0.57854 1.02695 1.19055
 H122 H 0.44152 1.02310 1.30698
 H123 H 0.46730 1.07881 1.36704
 H124 H 0.64192 1.16690 1.33219
 H125 H 0.61622 1.11086 1.27250
 H126 H 0.38941 0.91597 1.13120
 C127 C 1.03047 0.51343 0.74784
 C128 C 0.97309 0.48577 0.74807
 C129 C 0.93957 0.46873 0.71178
 C130 C 0.94041 0.47081 0.78471
 C131 C 1.06362 0.52830 0.78427
 C132 C 1.06341 0.53054 0.71127
 C133 C 0.90030 0.48599 0.70529
 C134 C 0.86716 0.46917 0.67190
 C135 C 0.87261 0.43460 0.64471
 C136 C 0.91152 0.41697 0.65101
 C137 C 0.94477 0.43380 0.68448
 C138 C 0.94886 0.51242 0.81189
 C139 C 0.91685 0.49746 0.84586
 C140 C 0.87588 0.44092 0.85281
 C141 C 0.86709 0.39944 0.82569
 C142 C 0.89902 0.41431 0.79179
 C143 C 1.05539 0.48660 0.81134
 C144 C 1.08718 0.50152 0.84544
 C145 C 1.12776 0.55817 0.85261
 C146 C 1.13650 0.59972 0.82549
 C147 C 1.10474 0.58484 0.79147
 C148 C 1.10277 0.51353 0.70440
 C149 C 1.13526 0.53027 0.67073
 C150 C 1.12910 0.56457 0.64357
 C151 C 1.09007 0.58197 0.65029
 C152 C 1.05751 0.56520 0.68405
 H153 H 0.89543 0.51260 0.72611
 H154 H 0.83699 0.48280 0.66741
 H155 H 0.91576 0.38986 0.63027
 H156 H 0.97405 0.41915 0.68932
 H157 H 0.97984 0.55638 0.80663
 H158 H 0.92368 0.52997 0.86650
 H159 H 0.89163 0.38169 0.77108
 H160 H 1.02458 0.44263 0.80595
 H161 H 1.08031 0.46886 0.86601
 H162 H 1.16798 0.64365 0.83053
 H163 H 1.11191 0.61749 0.77084
 H164 H 1.10821 0.48713 0.72514
 H165 H 1.16545 0.51671 0.66607
 H166 H 1.08514 0.60887 0.62969
 H167 H 1.02819 0.57969 0.68917
 H168 H 0.83528 0.35563 0.83064
 C169 C 0.48676 0.51514 0.74982
 C170 C 0.51468 0.48616 0.74998
 C171 C 0.53103 0.46961 0.71362
 C172 C 0.53048 0.46917 0.78651
 C173 C 0.47097 0.53222 0.78619
 C174 C 0.47035 0.53156 0.71331
 C175 C 0.51281 0.41247 0.70710
 C176 C 0.52846 0.39592 0.67346
 C177 C 0.56278 0.43634 0.64606
 C178 C 0.58146 0.49351 0.65242
 C179 C 0.56582 0.51016 0.68615
 C180 C 0.48959 0.43490 0.81393
 C181 C 0.50543 0.41835 0.84769
 C182 C 0.56214 0.43556 0.85416
 C183 C 0.60290 0.46942 0.82683
 C184 C 0.58716 0.48598 0.79316
 C185 C 0.51189 0.56667 0.81358
 C186 C 0.49602 0.58312 0.84729
 C187 C 0.43926 0.56559 0.85372
 C188 C 0.39847 0.53157 0.82641
 C189 C 0.41424 0.51512 0.79278
 C190 C 0.48825 0.58864 0.70674
 C191 C 0.47225 0.60502 0.67312
 C192 C 0.43785 0.56454 0.64575
 C193 C 0.41955 0.50743 0.65213
 C194 C 0.43556 0.49093 0.68585
 H195 H 0.48627 0.38067 0.72805
 H196 H 0.51403 0.35163 0.66892
 H197 H 0.60841 0.52517 0.63152
 H198 H 0.58114 0.55455 0.69101
 H199 H 0.44552 0.42061 0.80899
 H200 H 0.47347 0.39175 0.86851
 H201 H 0.61922 0.51207 0.77225
 H202 H 0.55598 0.58114 0.80866
 H203 H 0.52797 0.60984 0.86811
 H204 H 0.35450 0.51807 0.83099
 H205 H 0.38218 0.48887 0.77188
 H206 H 0.51477 0.62051 0.72768
 H207 H 0.48640 0.64926 0.66859
 H208 H 0.39256 0.47569 0.63127
 H209 H 0.42044 0.44658 0.69073
 H210 H 0.64683 0.48271 0.83142
 C211 C 0.48336 -0.03086 0.75161
 C212 C 0.51167 0.02664 0.75181
 C213 C 0.52700 0.05983 0.71541
 C214 C 0.52930 0.05970 0.78833
 C215 C 0.46569 -0.06423 0.78795
 C216 C 0.46809 -0.06367 0.71499
 C217 C 0.58367 0.10031 0.70830
 C218 C 0.59901 0.13215 0.67433
 C219 C 0.55784 0.12414 0.64721
 C220 C 0.50111 0.08423 0.65424
 C221 C 0.48567 0.05231 0.68830
 C222 C 0.56369 0.05322 0.81542
 C223 C 0.58116 0.08604 0.84909
 C224 C 0.56474 0.12583 0.85582
 C225 C 0.53069 0.13255 0.82885
 C226 C 0.51322 0.09982 0.79526
 C227 C 0.43131 -0.05792 0.81503
 C228 C 0.41427 -0.09057 0.84876
 C229 C 0.43113 -0.13005 0.85554
 C230 C 0.46509 -0.13669 0.82849
 C231 C 0.48212 -0.10410 0.79484
 C232 C 0.41148 -0.10428 0.70772
 C233 C 0.39619 -0.13582 0.67360
 C234 C 0.43739 -0.12741 0.64641
 C235 C 0.49410 -0.08731 0.65361
 C236 C 0.50943 -0.05572 0.68783
 H237 H 0.61605 0.10690 0.72897
 H238 H 0.64297 0.16314 0.66926
 H239 H 0.46888 0.07806 0.63356
 H240 H 0.44162 0.02199 0.69362
 H241 H 0.57745 0.02330 0.81025
 H242 H 0.60791 0.08084 0.86962
 H243 H 0.48705 0.10570 0.77460
 H244 H 0.41733 -0.02815 0.80985
 H245 H 0.38759 -0.08534 0.86928
 H246 H 0.47816 -0.16731 0.83324
 H247 H 0.50831 -0.10978 0.77417
 H248 H 0.37908 -0.11123 0.72841
 H249 H 0.35220 -0.16690 0.66854
 H250 H 0.52649 -0.08067 0.63298
 H251 H 0.55345 -0.02532 0.69324
 H252 H 0.51804 0.16344 0.83365
 O253 O 0.41429 0.66936 0.95554
 O254 O 0.41389 0.76254 0.96724
 C255 C 0.37790 0.76815 0.94779
 O256 O 0.32568 0.74168 0.95506
 O257 O 0.23175 0.64697 0.96611
 C258 C 0.22623 0.60539 0.94656
 O259 O 0.25196 0.57944 0.95423
 O260 O 0.34555 0.58043 0.96634
 C261 C 0.38814 0.61723 0.94761
 O262 O 0.41602 0.65352 1.03266
 O263 O 0.41087 0.74420 1.04436
 C264 C 0.38271 0.76770 1.05172
 O265 O 0.34002 0.75930 1.03225
 O266 O 0.24899 0.66211 1.04334
 C267 C 0.22534 0.60996 1.05089
 O268 O 0.23298 0.57533 1.03137
 O269 O 0.32892 0.58121 1.04335
 C270 C 0.38085 0.60992 1.05139
 Cr271 Cr 0.41069 0.70578 0.99993
 Cr272 Cr 0.28817 0.70103 0.99920
 Cr273 Cr 0.29131 0.58219 0.99883
 O274 O 0.33009 0.66300 0.99930
 O275 O 0.58608 0.33131 0.95653
 O276 O 0.58517 0.23744 0.96844
 C277 C 0.62069 0.23080 0.94931
 O278 O 0.67291 0.25662 0.95671
 O279 O 0.76760 0.35088 0.96724
 C280 C 0.77408 0.39296 0.94778
 O281 O 0.74902 0.41958 0.95532
 O282 O 0.65596 0.41989 0.96685
 C283 C 0.61289 0.38336 0.94831
 O284 O 0.58483 0.34744 1.03366
 O285 O 0.58857 0.25598 1.04555
 C286 C 0.61634 0.23211 1.05324
 O287 O 0.65905 0.24015 1.03405
 O288 O 0.75106 0.33686 1.04457
 C289 C 0.77525 0.38909 1.05198
 O290 O 0.76762 0.42386 1.03256
 O291 O 0.67224 0.41942 1.04402
 C292 C 0.62033 0.39117 1.05216
 Cr293 Cr 0.58930 0.29467 1.00102
 Cr294 Cr 0.71109 0.29766 1.00063
 Cr295 Cr 0.70968 0.41754 0.99971
 O296 O 0.67000 0.33662 1.00044
 O297 O 0.65332 0.41665 0.53255
 O298 O 0.74406 0.41171 0.54388
 C299 C 0.76745 0.38343 0.55143
 O300 O 0.75860 0.34020 0.53238
 O301 O 0.66192 0.24886 0.54401
 C302 C 0.61001 0.22519 0.55190
 O303 O 0.57524 0.23306 0.53280
 O304 O 0.58162 0.32956 0.54442
 C305 C 0.61041 0.38178 0.55190
 O306 O 0.66752 0.41338 0.45538
 O307 O 0.76097 0.41359 0.46680
 C308 C 0.76681 0.37745 0.44776
 O309 O 0.74038 0.32518 0.45527
 O310 O 0.64588 0.23126 0.46685
 C311 C 0.60382 0.22532 0.44772
 O312 O 0.57781 0.25089 0.45564
 O313 O 0.57903 0.34485 0.46735
 C314 C 0.61530 0.38699 0.44798
 Cr315 Cr 0.70482 0.41073 0.49965
 Cr316 Cr 0.70019 0.28795 0.49963
 Cr317 Cr 0.58152 0.29107 0.50004
 O318 O 0.66220 0.32992 0.49976
 O319 O 0.34587 0.58366 0.53242
 O320 O 0.25435 0.58721 0.54334
 C321 C 0.23075 0.61517 0.55120
 O322 O 0.23918 0.65844 0.53233
 O323 O 0.33526 0.75049 0.54402
 C324 C 0.38711 0.77436 0.55226
 O325 O 0.42225 0.76694 0.53334
 O326 O 0.41726 0.67094 0.54429
 C327 C 0.38882 0.61867 0.55174
 O328 O 0.33214 0.58722 0.45514
 O329 O 0.23798 0.58572 0.46606
 C330 C 0.23156 0.62166 0.44717
 O331 O 0.25707 0.67379 0.45512
 O332 O 0.35095 0.76832 0.46680
 C333 C 0.39351 0.77523 0.44792
 O334 O 0.42021 0.75037 0.45598
 O335 O 0.42020 0.65686 0.46706
 C336 C 0.38434 0.61439 0.44772
 Cr337 Cr 0.29421 0.58910 0.49925
 Cr338 Cr 0.29715 0.71119 0.49957
 Cr339 Cr 0.41684 0.70975 0.50015
 O340 O 0.33606 0.67001 0.49964
 C341 C 0.41964 0.58168 0.38766
 C342 C 0.40399 0.59642 0.41546
 C343 C 0.42596 0.84247 0.38695
 C344 C 0.41180 0.81261 0.41523
 C345 C 0.16294 0.58580 0.38695
 C346 C 0.19365 0.60213 0.41480
 C347 C 0.58080 0.42054 0.38792
 C348 C 0.59611 0.40547 0.41573
 C349 C 0.57109 0.15855 0.38662
 C350 C 0.58531 0.18821 0.41496
 C351 C 0.83666 0.41335 0.38847
 C352 C 0.80531 0.39697 0.41586
 C353 C 0.58486 0.42405 1.11202
 C354 C 0.60072 0.40938 1.08430
 C355 C 0.84286 0.42520 1.11264
 C356 C 0.81288 0.40975 1.08446
 C357 C 0.58304 0.16317 1.11335
 C358 C 0.59843 0.19402 1.08555
 C359 C 0.41689 0.57805 1.11151
 C360 C 0.40086 0.59234 1.08367
 C361 C 0.15937 0.57404 1.11218
 C362 C 0.18851 0.58932 1.08367
 C363 C 0.41497 0.83656 1.11172
 C364 C 0.40008 0.80577 1.08395
 C365 C 0.57973 0.41877 0.61203
 C366 C 0.59373 0.40255 0.58419
 C367 C 0.57422 0.15804 0.61272
 C368 C 0.58968 0.18787 0.58450
 C369 C 0.83699 0.41628 0.61101
 C370 C 0.80588 0.40120 0.58343
 C371 C 0.42039 0.58195 0.61177
 C372 C 0.40598 0.59804 0.58398
 C373 C 0.42203 0.84077 0.61358
 C374 C 0.40694 0.81130 0.58513
 C375 C 0.16221 0.58192 0.61136
 C376 C 0.19275 0.59711 0.58347
 C377 C 0.42261 0.58363 0.88766
 C378 C 0.40740 0.59880 0.91543
 C379 C 0.15979 0.57298 0.88531
 C380 C 0.18933 0.58719 0.91370
 C381 C 0.41334 0.83675 0.88768
 C382 C 0.39740 0.80616 0.91554
 C383 C 0.57874 0.41734 0.88816
 C384 C 0.59384 0.40201 0.91599
 C385 C 0.84153 0.42526 0.88709
 C386 C 0.81146 0.41102 0.91518
 C387 C 0.58417 0.16128 0.88962
 C388 C 0.60063 0.19231 0.91727
   
