data_POSCAR
  _audit_creation_date              2014-09-24
  _audit_creation_method            'ToBaCCo'
  _symmetry_space_group_name_H-M    'P1'
  _symmetry_Int_Tables_number       1
  _symmetry_cell_setting            triclinic
  loop_
  _symmetry_equiv_pos_as_xyz
 x,y,z
_cell_length_a 38.6834
_cell_length_b 38.6829
_cell_length_c 31.4162
_cell_angle_alpha 89.949800
_cell_angle_beta 89.956700
_cell_angle_gamma 89.994900
loop_
  _atom_site_label
  _atom_site_type_symbol
  _atom_site_fract_x
  _atom_site_fract_y
  _atom_site_fract_z
O1 O 0.03287 0.31512 -0.04052
 O2 O -0.03488 0.31446 0.04243
 O3 O 0.03280 0.31500 0.04235
 O4 O -0.03484 0.31480 -0.04048
 O5 O -0.03429 0.25763 -0.04047
 O6 O 0.03298 0.25783 0.04196
 O7 O -0.03430 0.25730 0.04202
 O8 O 0.03302 0.25795 -0.04050
 Cu9 Cu -0.00106 0.32065 0.00095
 Cu10 Cu -0.00062 0.25194 0.00073
 C11 C 0.04454 0.28655 -0.05423
 C12 C -0.04615 0.28566 0.05600
 C13 C 0.04446 0.28636 0.05587
 C14 C -0.04612 0.28610 -0.05420
 O15 O 0.46641 0.81434 0.54132
 O16 O 0.53402 0.81438 0.45831
 O17 O 0.46631 0.81431 0.45837
 O18 O 0.53407 0.81411 0.54122
 O19 O 0.53380 0.75694 0.54092
 O20 O 0.46647 0.75714 0.45852
 O21 O 0.53379 0.75721 0.45844
 O22 O 0.46652 0.75717 0.54104
 Cu23 Cu 0.50020 0.82009 0.49980
 Cu24 Cu 0.50013 0.75138 0.49971
 C25 C 0.45494 0.78566 0.55498
 C26 C 0.54548 0.78571 0.44464
 C27 C 0.45482 0.78565 0.44470
 C28 C 0.54549 0.78539 0.55482
 O29 O 1.03535 0.68648 0.04132
 O30 O 0.96775 0.68622 -0.04171
 O31 O 1.03542 0.68642 -0.04165
 O32 O 0.96763 0.68619 0.04118
 O33 O 0.96762 0.74336 0.04090
 O34 O 1.03501 0.74358 -0.04150
 O35 O 0.96774 0.74339 -0.04156
 O36 O 1.03493 0.74364 0.04104
 Cu37 Cu 1.00158 0.68053 -0.00020
 Cu38 Cu 1.00132 0.74922 -0.00028
 C39 C 1.04667 0.71520 0.05498
 C40 C 0.95620 0.71486 -0.05541
 C41 C 1.04676 0.71513 -0.05536
 C42 C 0.95602 0.71483 0.05474
 O43 O 0.53351 0.18450 0.54138
 O44 O 0.46593 0.18422 0.45846
 O45 O 0.53361 0.18470 0.45848
 O46 O 0.46580 0.18429 0.54137
 O47 O 0.46573 0.24146 0.54117
 O48 O 0.53310 0.24187 0.45873
 O49 O 0.46582 0.24139 0.45869
 O50 O 0.53304 0.24167 0.54120
 Cu51 Cu 0.49974 0.17862 0.49993
 Cu52 Cu 0.49939 0.24733 0.49996
 C53 C 0.54483 0.21321 0.55502
 C54 C 0.45434 0.21285 0.44482
 C55 C 0.54492 0.21346 0.44486
 C56 C 0.45418 0.21291 0.55500
 O57 O 0.68514 0.03284 -0.04080
 O58 O 0.68555 -0.03477 0.04235
 O59 O 0.68529 0.03293 0.04209
 O60 O 0.68514 -0.03484 -0.04056
 O61 O 0.74231 -0.03456 -0.04069
 O62 O 0.74247 0.03285 0.04155
 O63 O 0.74271 -0.03445 0.04179
 O64 O 0.74232 0.03271 -0.04091
 Cu65 Cu 0.67947 -0.00098 0.00081
 Cu66 Cu 0.74818 -0.00086 0.00041
 C67 C 0.71377 0.04432 -0.05464
 C68 C 0.71430 -0.04616 0.05587
 C69 C 0.71399 0.04447 0.05550
 C70 C 0.71379 -0.04626 -0.05434
 O71 O 0.18566 0.46640 0.54169
 O72 O 0.18514 0.53391 0.45850
 O73 O 0.18573 0.46620 0.45876
 O74 O 0.18524 0.53410 0.54141
 O75 O 0.24241 0.53431 0.54113
 O76 O 0.24290 0.46682 0.45890
 O77 O 0.24231 0.53413 0.45863
 O78 O 0.24283 0.46700 0.54141
 Cu79 Cu 0.17965 0.50010 0.50009
 Cu80 Cu 0.24834 0.50060 0.50001
 C81 C 0.21442 0.45518 0.55536
 C82 C 0.21373 0.54556 0.44478
 C83 C 0.21450 0.45492 0.44511
 C84 C 0.21384 0.54580 0.55498
 O85 O 0.31355 1.03542 0.04141
 O86 O 0.31407 0.96768 -0.04144
 O87 O 0.31355 1.03539 -0.04156
 O88 O 0.31412 0.96772 0.04143
 O89 O 0.25695 0.96746 0.04130
 O90 O 0.25639 1.03474 -0.04127
 O91 O 0.25690 0.96743 -0.04115
 O92 O 0.25639 1.03477 0.04128
 Cu93 Cu 0.31962 1.00162 -0.00005
 Cu94 Cu 0.25093 1.00107 0.00005
 C95 C 0.28478 1.04664 0.05513
 C96 C 0.28548 0.95596 -0.05500
 C97 C 0.28478 1.04661 -0.05521
 C98 C 0.28554 0.95601 0.05510
 O99 O 0.81531 0.46580 0.45828
 O100 O 0.81555 0.53350 0.54100
 O101 O 0.81508 0.46582 0.54119
 O102 O 0.81537 0.53349 0.45810
 O103 O 0.75820 0.53348 0.45835
 O104 O 0.75791 0.46628 0.54098
 O105 O 0.75838 0.53356 0.54082
 O106 O 0.75814 0.46620 0.45850
 Cu107 Cu 0.82113 0.49963 0.49964
 Cu108 Cu 0.75242 0.49990 0.49966
 C109 C 0.78660 0.45443 0.44468
 C110 C 0.78692 0.54509 0.55463
 C111 C 0.78633 0.45451 0.55486
 C112 C 0.78673 0.54504 0.44444
 C113 C 0.19110 0.21704 0.14252
 C114 C 0.21520 0.19111 0.14332
 C115 C 0.23698 0.19794 0.17735
 N116 N 0.22681 0.22718 0.19729
 C117 C 0.19875 0.23896 0.17615
 C118 C 0.26614 0.17769 0.18828
 C119 C 0.28921 0.18508 0.22206
 C120 C 0.32026 0.16797 0.22875
 C121 C 0.33547 0.18289 0.26372
 C122 C 0.31338 0.20880 0.27762
 N123 N 0.28497 0.20952 0.25248
 C124 C 0.32023 0.23077 0.31267
 C125 C 0.30065 0.26038 0.32359
 C126 C 0.30839 0.28239 0.35712
 C127 C 0.28436 0.30838 0.35622
 C128 C 0.26252 0.30150 0.32226
 N129 N 0.27261 0.27217 0.30245
 C130 C 0.23338 0.32175 0.31132
 C131 C 0.21022 0.31426 0.27767
 C132 C 0.17910 0.33128 0.27112
 C133 C 0.16382 0.31629 0.23624
 C134 C 0.18596 0.29045 0.22224
 N135 N 0.21445 0.28982 0.24725
 C136 C 0.17909 0.26849 0.18721
 H137 H 0.17018 0.21930 0.11982
 H138 H 0.21658 0.16977 0.12113
 H139 H 0.23654 0.27535 0.24198
 H140 H 0.33114 0.14715 0.21002
 H141 H 0.36027 0.17574 0.27701
 H142 H 0.32932 0.28015 0.37980
 H143 H 0.28305 0.32980 0.37831
 H144 H 0.13896 0.32336 0.22306
 H145 H 0.26293 0.22409 0.25763
 H146 H 0.16822 0.35207 0.28988
 C147 C 0.80890 0.78380 0.14208
 C148 C 0.78463 0.80957 0.14313
 C149 C 0.76293 0.80241 0.17719
 N150 N 0.77333 0.77313 0.19692
 C151 C 0.80144 0.76165 0.17561
 C152 C 0.73363 0.82239 0.18833
 C153 C 0.71061 0.81465 0.22210
 C154 C 0.67942 0.83148 0.22891
 C155 C 0.66432 0.81629 0.26383
 C156 C 0.68663 0.79050 0.27759
 N157 N 0.71505 0.79012 0.25240
 C158 C 0.67995 0.76834 0.31256
 C159 C 0.69979 0.73886 0.32332
 C160 C 0.69228 0.71667 0.35680
 C161 C 0.71655 0.69090 0.35574
 C162 C 0.73828 0.69810 0.32171
 N163 N 0.72791 0.72740 0.30203
 C164 C 0.76759 0.67814 0.31059
 C165 C 0.79064 0.68591 0.27687
 C166 C 0.82187 0.66912 0.27012
 C167 C 0.83697 0.68432 0.23521
 C168 C 0.81463 0.71006 0.22140
 N169 N 0.78619 0.71042 0.24655
 C170 C 0.82130 0.73220 0.18641
 H171 H 0.82981 0.78180 0.11929
 H172 H 0.78308 0.83102 0.12107
 H173 H 0.76399 0.72475 0.24144
 H174 H 0.66837 0.85229 0.21029
 H175 H 0.63946 0.82318 0.27718
 H176 H 0.67136 0.71865 0.37956
 H177 H 0.71808 0.66942 0.37776
 H178 H 0.86185 0.67746 0.22190
 H179 H 0.73722 0.77573 0.25745
 H180 H 0.83292 0.64834 0.28876
 C181 C 0.71700 0.30801 0.35715
 C182 C 0.69112 0.28386 0.35615
 C183 C 0.69820 0.26211 0.32214
 N184 N 0.72753 0.27236 0.30241
 C185 C 0.73913 0.30042 0.32365
 C186 C 0.67811 0.23290 0.31109
 C187 C 0.68578 0.20983 0.27739
 C188 C 0.66889 0.17866 0.27071
 C189 C 0.68402 0.16352 0.23582
 C190 C 0.70981 0.18577 0.22194
 N191 N 0.71028 0.21422 0.24703
 C192 C 0.73189 0.17905 0.18693
 C193 C 0.76140 0.19881 0.17603
 C194 C 0.78347 0.19127 0.14247
 C195 C 0.80933 0.21545 0.14343
 C196 C 0.80229 0.23715 0.17749
 N197 N 0.77301 0.22686 0.19728
 C198 C 0.82239 0.26636 0.18855
 C199 C 0.81478 0.28938 0.22232
 C200 C 0.83173 0.32051 0.22907
 C201 C 0.81662 0.33563 0.26401
 C202 C 0.79078 0.31341 0.27782
 N203 N 0.79026 0.28501 0.25266
 C204 C 0.76868 0.32014 0.31281
 H205 H 0.71909 0.32891 0.37988
 H206 H 0.66966 0.28241 0.37820
 H207 H 0.77579 0.26289 0.25776
 H208 H 0.64809 0.16767 0.28940
 H209 H 0.67707 0.13866 0.22255
 H210 H 0.78136 0.17038 0.11972
 H211 H 0.83075 0.21692 0.12133
 H212 H 0.82362 0.36045 0.27733
 H213 H 0.72468 0.23637 0.24186
 H214 H 0.85255 0.33149 0.21042
 C215 C 0.28274 0.69187 0.35679
 C216 C 0.30862 0.71602 0.35583
 C217 C 0.30161 0.73784 0.32184
 N218 N 0.27231 0.72764 0.30207
 C219 C 0.26067 0.69953 0.32328
 C220 C 0.32174 0.76707 0.31083
 C221 C 0.31415 0.79022 0.27715
 C222 C 0.33106 0.82139 0.27052
 C223 C 0.31600 0.83663 0.23563
 C224 C 0.29022 0.81441 0.22170
 N225 N 0.28970 0.78592 0.24677
 C226 C 0.26820 0.82123 0.18668
 C227 C 0.23873 0.80147 0.17572
 C228 C 0.21673 0.80906 0.14211
 C229 C 0.19089 0.78486 0.14300
 C230 C 0.19785 0.76309 0.17705
 N231 N 0.22708 0.77336 0.19692
 C232 C 0.17772 0.73385 0.18805
 C233 C 0.18524 0.71077 0.22184
 C234 C 0.16824 0.67965 0.22858
 C235 C 0.18325 0.66447 0.26355
 C236 C 0.20909 0.68664 0.27739
 N237 N 0.20969 0.71507 0.25222
 C238 C 0.23112 0.67984 0.31242
 H239 H 0.28061 0.67093 0.37950
 H240 H 0.33005 0.71740 0.37789
 H241 H 0.22418 0.73716 0.25732
 H242 H 0.35183 0.83233 0.28924
 H243 H 0.32299 0.86151 0.22240
 H244 H 0.21889 0.82999 0.11938
 H245 H 0.16952 0.78342 0.12086
 H246 H 0.17620 0.63964 0.27687
 H247 H 0.27529 0.76379 0.24157
 H248 H 0.14744 0.66872 0.20990
 C249 C 0.78332 0.19053 0.85684
 C250 C 0.80747 0.21640 0.85795
 C251 C 0.80004 0.23848 0.82435
 N252 N 0.77207 0.22685 0.80293
 C253 C 0.76173 0.19755 0.82266
 C254 C 0.81982 0.26800 0.81356
 C255 C 0.81324 0.29003 0.77846
 C256 C 0.83556 0.31580 0.76467
 C257 C 0.82057 0.33087 0.72962
 C258 C 0.78942 0.31397 0.72279
 N259 N 0.78490 0.28953 0.75318
 C260 C 0.76650 0.32160 0.68892
 C261 C 0.73728 0.30155 0.67777
 C262 C 0.71564 0.30862 0.64366
 C263 C 0.69144 0.28279 0.64261
 C264 C 0.69889 0.26069 0.67619
 N265 N 0.72692 0.27226 0.69752
 C266 C 0.67910 0.23119 0.68699
 C267 C 0.68574 0.20908 0.72201
 C268 C 0.66348 0.18324 0.73575
 C269 C 0.67852 0.16812 0.77072
 C270 C 0.70964 0.18506 0.77759
 N271 N 0.71409 0.20958 0.74727
 C272 C 0.73258 0.17743 0.81143
 H273 H 0.78178 0.16909 0.87892
 H274 H 0.82827 0.21853 0.88082
 H275 H 0.73622 0.22404 0.74226
 H276 H 0.86036 0.32277 0.77808
 H277 H 0.83164 0.35163 0.71095
 H278 H 0.71719 0.33005 0.62157
 H279 H 0.67059 0.28071 0.61979
 H280 H 0.66750 0.14729 0.78934
 H281 H 0.76273 0.27514 0.75825
 H282 H 0.63868 0.17626 0.72234
 C283 C 0.28310 0.69222 0.64297
 C284 C 0.30900 0.71633 0.64407
 C285 C 0.30193 0.73804 0.67813
 N286 N 0.27258 0.72779 0.69780
 C287 C 0.26096 0.69978 0.67646
 C288 C 0.32206 0.76722 0.68926
 C289 C 0.31444 0.79031 0.72295
 C290 C 0.33142 0.82143 0.72966
 C291 C 0.31630 0.83663 0.76453
 C292 C 0.29043 0.81446 0.77837
 N293 N 0.28991 0.78601 0.75327
 C294 C 0.26830 0.82127 0.81333
 C295 C 0.23878 0.80151 0.82415
 C296 C 0.21666 0.80904 0.85768
 C297 C 0.19084 0.78484 0.85668
 C298 C 0.19792 0.76312 0.82264
 N299 N 0.22721 0.77344 0.80289
 C300 C 0.17784 0.73388 0.81159
 C301 C 0.18540 0.71086 0.77780
 C302 C 0.16840 0.67975 0.77104
 C303 C 0.18344 0.66464 0.73605
 C304 C 0.20930 0.68683 0.72222
 N305 N 0.20988 0.71522 0.74742
 C306 C 0.23137 0.68008 0.68719
 H307 H 0.28099 0.67136 0.62018
 H308 H 0.33048 0.71778 0.62205
 H309 H 0.22436 0.73733 0.74236
 H310 H 0.35227 0.83236 0.71100
 H311 H 0.32331 0.86147 0.77781
 H312 H 0.21874 0.82993 0.88043
 H313 H 0.16939 0.78335 0.87876
 H314 H 0.17640 0.63983 0.72271
 H315 H 0.27543 0.76390 0.75836
 H316 H 0.14759 0.66879 0.78972
 C317 C 0.19112 0.21718 0.85828
 C318 C 0.21516 0.19120 0.85723
 C319 C 0.23688 0.19813 0.82309
 N320 N 0.22671 0.22747 0.80334
 C321 C 0.19874 0.23922 0.82470
 C322 C 0.26598 0.17787 0.81194
 C323 C 0.28901 0.18530 0.77807
 C324 C 0.32002 0.16813 0.77122
 C325 C 0.33518 0.18308 0.73618
 C326 C 0.31311 0.20906 0.72241
 N327 N 0.28475 0.20979 0.74770
 C328 C 0.31994 0.23108 0.68735
 C329 C 0.30039 0.26076 0.67662
 C330 C 0.30804 0.28284 0.64308
 C331 C 0.28406 0.30887 0.64421
 C332 C 0.26234 0.30194 0.67834
 N333 N 0.27245 0.27255 0.69802
 C334 C 0.23327 0.32222 0.68952
 C335 C 0.21018 0.31474 0.72332
 C336 C 0.17914 0.33187 0.73010
 C337 C 0.16392 0.31685 0.76506
 C338 C 0.18599 0.29089 0.77887
 N339 N 0.21441 0.29022 0.75367
 C340 C 0.17912 0.26884 0.81389
 H341 H 0.17027 0.21940 0.88111
 H342 H 0.21655 0.16977 0.87932
 H343 H 0.23647 0.27565 0.75872
 H344 H 0.33089 0.14726 0.78987
 H345 H 0.35994 0.17591 0.72277
 H346 H 0.32888 0.28061 0.62024
 H347 H 0.28271 0.33034 0.62216
 H348 H 0.13912 0.32399 0.77841
 H349 H 0.26271 0.22439 0.74269
 H350 H 0.16828 0.35274 0.71145
 C351 C 0.69173 0.71544 0.64349
 C352 C 0.71769 0.69138 0.64241
 C353 C 0.73976 0.69896 0.67592
 N354 N 0.72805 0.72694 0.69726
 C355 C 0.69870 0.73713 0.67757
 C356 C 0.76937 0.67932 0.68667
 C357 C 0.79148 0.68610 0.72161
 C358 C 0.81746 0.66398 0.73527
 C359 C 0.83254 0.67912 0.77017
 C360 C 0.81544 0.71015 0.77707
 N361 N 0.79086 0.71445 0.74684
 C362 C 0.82296 0.73314 0.81088
 C363 C 0.80266 0.76217 0.82216
 C364 C 0.80957 0.78381 0.85630
 C365 C 0.78354 0.80779 0.85749
 C366 C 0.76149 0.80022 0.82395
 N367 N 0.77328 0.77232 0.80252
 C368 C 0.73184 0.81983 0.81325
 C369 C 0.70982 0.81313 0.77822
 C370 C 0.68391 0.83531 0.76450
 C371 C 0.66891 0.82024 0.72950
 C372 C 0.68598 0.78919 0.72261
 N373 N 0.71047 0.78481 0.75293
 C374 C 0.67848 0.76624 0.68875
 H375 H 0.67028 0.71686 0.62146
 H376 H 0.71987 0.67053 0.61960
 H377 H 0.72500 0.76272 0.75795
 H378 H 0.82456 0.63921 0.72185
 H379 H 0.85344 0.66822 0.78872
 H380 H 0.83103 0.78241 0.87832
 H381 H 0.78131 0.82859 0.88035
 H382 H 0.64807 0.83120 0.71089
 H383 H 0.77627 0.73650 0.74186
 H384 H 0.67681 0.86007 0.77794
 C385 C 0.28408 0.07239 0.08446
 C386 C 0.28215 0.09576 0.10972
 C387 C 0.27825 0.12370 0.13821
 C388 C 0.27350 0.14801 0.16152
 C389 C 0.78649 0.57244 0.58539
 C390 C 0.78474 0.59608 0.61025
 C391 C 0.78107 0.62441 0.63811
 C392 C 0.77650 0.64911 0.66078
 C393 C 0.71500 0.92805 0.08518
 C394 C 0.71702 0.90460 0.11035
 C395 C 0.72110 0.87656 0.13866
 C396 C 0.72604 0.85216 0.16179
 C397 C 0.21518 0.42798 0.58640
 C398 C 0.21720 0.40453 0.61155
 C399 C 0.22117 0.37647 0.63985
 C400 C 0.22594 0.35205 0.66297
 C401 C 0.92804 0.28488 0.08529
 C402 C 0.90458 0.28283 0.11045
 C403 C 0.87654 0.27876 0.13878
 C404 C 0.85215 0.27387 0.16194
 C405 C 0.42776 0.78510 0.58604
 C406 C 0.40433 0.78322 0.61123
 C407 C 0.37629 0.77937 0.63958
 C408 C 0.35188 0.77462 0.66273
 C409 C 0.07240 0.71582 0.08434
 C410 C 0.09577 0.71772 0.10961
 C411 C 0.12372 0.72162 0.13808
 C412 C 0.14803 0.72641 0.16135
 C413 C 0.57219 0.21386 0.58577
 C414 C 0.59584 0.21576 0.61059
 C415 C 0.62419 0.21955 0.63841
 C416 C 0.64889 0.22414 0.66106
 C417 C 0.71425 0.07157 0.91437
 C418 C 0.71618 0.09507 0.88926
 C419 C 0.72018 0.12317 0.86101
 C420 C 0.72506 0.14761 0.83793
 C421 C 0.21408 0.57287 0.41388
 C422 C 0.21579 0.59650 0.38893
 C423 C 0.21944 0.62484 0.36099
 C424 C 0.22399 0.64957 0.33829
 C425 C 0.28512 0.92853 0.91428
 C426 C 0.28341 0.90481 0.88950
 C427 C 0.27980 0.87637 0.86173
 C428 C 0.27532 0.85158 0.83913
 C429 C 0.78599 0.42707 0.41395
 C430 C 0.78412 0.40342 0.38912
 C431 C 0.78035 0.37508 0.36131
 C432 C 0.77576 0.35036 0.33867
 C433 C 0.07197 0.28620 0.91502
 C434 C 0.09569 0.28443 0.89021
 C435 C 0.12411 0.28067 0.86240
 C436 C 0.14887 0.27604 0.83977
 C437 C 0.57286 0.78520 0.41384
 C438 C 0.59653 0.78342 0.38899
 C439 C 0.62492 0.77976 0.36113
 C440 C 0.64967 0.77528 0.33846
 C441 C 0.92894 0.71535 0.91365
 C442 C 0.90544 0.71722 0.88857
 C443 C 0.87732 0.72108 0.86036
 C444 C 0.85284 0.72580 0.83732
 C445 C 0.42705 0.21329 0.41397
 C446 C 0.40345 0.21508 0.38906
 C447 C 0.37514 0.21883 0.36116
 C448 C 0.35045 0.22349 0.33849
 C449 C 0.71429 0.92642 0.91487
 C450 C 0.71613 0.90282 0.88997
 C451 C 0.71993 0.87456 0.86202
 C452 C 0.72460 0.84993 0.83927
 C453 C 0.21527 0.42759 0.41427
 C454 C 0.21732 0.40407 0.38925
 C455 C 0.22131 0.37596 0.36104
 C456 C 0.22608 0.35154 0.33793
 C457 C 0.28405 0.07236 0.91544
 C458 C 0.28210 0.09576 0.89021
 C459 C 0.27815 0.12375 0.86180
 C460 C 0.27336 0.14811 0.83858
 C461 C 0.78619 0.57230 0.41348
 C462 C 0.78420 0.59581 0.38840
 C463 C 0.78011 0.62391 0.36017
 C464 C 0.77517 0.64834 0.33710
 C465 C 0.07249 0.71574 0.91527
 C466 C 0.09587 0.71763 0.88999
 C467 C 0.12381 0.72155 0.86151
 C468 C 0.14813 0.72637 0.83825
 C469 C 0.57224 0.21424 0.41396
 C470 C 0.59576 0.21636 0.38891
 C471 C 0.62388 0.22049 0.36071
 C472 C 0.64831 0.22541 0.33764
 C473 C 0.92654 0.28547 0.91502
 C474 C 0.90292 0.28356 0.89016
 C475 C 0.87462 0.27973 0.86228
 C476 C 0.84996 0.27510 0.83956
 C477 C 0.42753 0.78512 0.41380
 C478 C 0.40403 0.78318 0.38874
 C479 C 0.37594 0.77924 0.36050
 C480 C 0.35153 0.77445 0.33740
 C481 C 0.28519 0.92859 0.08584
 C482 C 0.28347 0.90486 0.11063
 C483 C 0.27981 0.87639 0.13838
 C484 C 0.27527 0.85158 0.16093
 C485 C 0.78557 0.42725 0.58583
 C486 C 0.78341 0.40377 0.61094
 C487 C 0.77916 0.37571 0.63920
 C488 C 0.77413 0.35133 0.66233
 C489 C 0.71459 0.07189 0.08616
 C490 C 0.71646 0.09560 0.11089
 C491 C 0.72024 0.12402 0.13859
 C492 C 0.72484 0.14878 0.16114
 C493 C 0.21423 0.57320 0.58573
 C494 C 0.21599 0.59685 0.61060
 C495 C 0.21968 0.62519 0.63851
 C496 C 0.22425 0.64988 0.66124
 C497 C 0.92857 0.71529 0.08543
 C498 C 0.90484 0.71708 0.11019
 C499 C 0.87639 0.72076 0.13794
 C500 C 0.85160 0.72526 0.16054
 C501 C 0.42678 0.21335 0.58580
 C502 C 0.40312 0.21521 0.61069
 C503 C 0.37478 0.21907 0.63861
 C504 C 0.35010 0.22379 0.66134
 C505 C 0.07184 0.28589 0.08658
 C506 C 0.09555 0.28408 0.11134
 C507 C 0.12398 0.28032 0.13903
 C508 C 0.14877 0.27568 0.16153
 C509 C 0.57276 0.78470 0.58575
 C510 C 0.59624 0.78265 0.61083
 C511 C 0.62430 0.77858 0.63908
 C512 C 0.64870 0.77370 0.66219
   
