data_POSCAR
  _audit_creation_date              2014-09-24
  _audit_creation_method            'ToBaCCo'
  _symmetry_space_group_name_H-M    'P1'
  _symmetry_Int_Tables_number       1
  _symmetry_cell_setting            triclinic
  loop_
  _symmetry_equiv_pos_as_xyz
 x,y,z
_cell_length_a 48.8583
_cell_length_b 48.2730
_cell_length_c 48.3951
_cell_angle_alpha 89.930700
_cell_angle_beta 90.078200
_cell_angle_gamma 89.118800
loop_
  _atom_site_label
  _atom_site_type_symbol
  _atom_site_fract_x
  _atom_site_fract_y
  _atom_site_fract_z
C1 C 0.20206 0.52273 1.02905
 H2 H 0.20119 0.53666 1.01153
 C3 C 0.18199 0.52438 1.04939
 H4 H 0.16660 0.54061 1.04743
 C5 C 0.22428 0.48566 1.05245
 H6 H 0.24059 0.47029 1.05321
 C7 C 0.20462 0.48663 1.07347
 H8 H 0.20615 0.47131 1.08973
 N9 N 0.22235 0.50330 1.03062
 C10 C 0.28386 0.53682 0.97493
 H11 H 0.28422 0.52168 0.95847
 C12 C 0.30151 0.55930 0.97396
 H13 H 0.31529 0.56133 0.95660
 C14 C 0.26675 0.55151 1.01838
 H15 H 0.25356 0.54817 1.03593
 C16 C 0.28416 0.57419 1.01831
 H17 H 0.28379 0.58836 1.03563
 Zn18 Zn 0.24533 0.50083 0.99933
 N19 N 0.26702 0.53323 0.99700
 C20 C 0.22205 0.51580 0.94653
 N21 N 0.22137 0.49805 0.96841
 C22 C 0.20133 0.47894 0.97063
 C23 C 0.18099 0.47709 0.95054
 C24 C 0.20207 0.51460 0.92582
 C25 C 0.29635 0.47241 1.00149
 C26 C 0.31419 0.44958 1.00132
 C27 C 0.27520 0.41955 1.00300
 C28 C 0.25804 0.44300 1.00283
 N29 N 0.26876 0.46886 1.00160
 H30 H 0.23743 0.53154 0.94544
 H31 H 0.20031 0.46589 0.98870
 H32 H 0.16511 0.46188 0.95295
 H33 H 0.20248 0.52935 0.90895
 H34 H 0.30472 0.49295 1.00142
 H35 H 0.33606 0.45289 1.00096
 H36 H 0.26631 0.39914 1.00344
 H37 H 0.23618 0.44042 1.00361
 C38 C 0.30205 0.57814 0.99603
 C39 C 0.18241 0.50572 1.07189
 C40 C 0.30365 0.42274 1.00173
 C41 C 0.18095 0.49531 0.92794
 C42 C 0.78568 0.51950 -0.03005
 H43 H 0.78704 0.53342 -0.01261
 C44 C 0.80426 0.52155 -0.05178
 H45 H 0.82009 0.53695 -0.05065
 C46 C 0.76396 0.48179 -0.05184
 H47 H 0.74841 0.46613 -0.05162
 C48 C 0.78203 0.48323 -0.07415
 H49 H 0.77980 0.46890 -0.09115
 N50 N 0.76596 0.49995 -0.03049
 C51 C 0.70098 0.53271 0.02220
 H52 H 0.70029 0.51679 0.03792
 C53 C 0.68205 0.55467 0.02267
 H54 H 0.66678 0.55551 0.03885
 C55 C 0.72082 0.55004 -0.01889
 H56 H 0.73558 0.54784 -0.03537
 C57 C 0.70213 0.57222 -0.01933
 H58 H 0.70302 0.58722 -0.03595
 Zn59 Zn 0.74251 0.49866 0.00054
 N60 N 0.71986 0.53080 0.00164
 C61 C 0.76433 0.51627 0.05205
 N62 N 0.76502 0.49621 0.03233
 C63 C 0.78317 0.47462 0.03382
 C64 C 0.80144 0.47244 0.05595
 C65 C 0.78231 0.51495 0.07449
 C66 C 0.69982 0.46887 -0.02217
 C67 C 0.67984 0.44861 -0.02373
 C68 C 0.69943 0.42684 0.01685
 C69 C 0.71902 0.44763 0.01771
 N70 N 0.71881 0.46812 -0.00162
 H71 H 0.75020 0.53359 0.05019
 H72 H 0.78367 0.45928 0.01755
 H73 H 0.81606 0.45536 0.05649
 H74 H 0.78144 0.53107 0.09001
 H75 H 0.69988 0.48563 -0.03703
 H76 H 0.66479 0.44968 -0.04016
 H77 H 0.69941 0.41109 0.03280
 H78 H 0.73383 0.44777 0.03429
 C79 C 0.68227 0.57459 0.00151
 C80 C 0.80257 0.50332 -0.07432
 C81 C 0.67926 0.42744 -0.00384
 C82 C 0.80127 0.49287 0.07658
 C83 C -0.01281 0.28893 0.46262
 H84 H -0.02762 0.29052 0.47917
 C85 C -0.01462 0.30689 0.44010
 H86 H -0.03184 0.32118 0.43960
 C87 C 0.02636 0.26685 0.44364
 H88 H 0.04251 0.25137 0.44535
 C89 C 0.02557 0.28461 0.42081
 H90 H 0.04192 0.28254 0.40592
 N91 N 0.00740 0.26940 0.46399
 C92 C -0.02231 0.20483 0.51899
 H93 H -0.00578 0.20369 0.53387
 C94 C -0.04330 0.18558 0.52006
 H95 H -0.04302 0.16970 0.53589
 C96 C -0.04214 0.22594 0.47933
 H97 H -0.04126 0.24111 0.46297
 C98 C -0.06389 0.20751 0.48006
 H99 H -0.07967 0.20869 0.46433
 Zn100 Zn 0.00938 0.24725 0.49616
 N101 N -0.02180 0.22422 0.49856
 C102 C -0.00627 0.26894 0.54892
 N103 N 0.01054 0.27178 0.52672
 C104 C 0.02739 0.29382 0.52446
 C105 C 0.02777 0.31413 0.54491
 C106 C -0.00647 0.28877 0.56996
 C107 C 0.03868 0.19698 0.48969
 C108 C 0.06135 0.17910 0.49031
 C109 C 0.08995 0.21813 0.50057
 C110 C 0.06660 0.23528 0.50012
 N111 N 0.04150 0.22443 0.49519
 H112 H -0.02002 0.25170 0.55012
 H113 H 0.03993 0.29615 0.50624
 H114 H 0.04124 0.33158 0.54258
 H115 H -0.02045 0.28654 0.58714
 H116 H 0.01881 0.18880 0.48481
 H117 H 0.05864 0.15728 0.48616
 H118 H 0.10971 0.22695 0.50506
 H119 H 0.06859 0.25714 0.50403
 C120 C -0.06427 0.18675 0.50030
 C121 C 0.00497 0.30544 0.41862
 C122 C 0.08733 0.18959 0.49612
 C123 C 0.01047 0.31192 0.56791
 C124 C 0.98483 0.70522 0.53534
 H125 H 0.97065 0.70272 0.51837
 C126 C 0.98405 0.68720 0.55791
 H127 H 0.96932 0.67068 0.55791
 C128 C 1.02219 0.72898 0.55498
 H129 H 1.03728 0.74502 0.55360
 C130 C 1.02196 0.71160 0.57807
 H131 H 1.03663 0.71494 0.59447
 N132 N 1.00373 0.72555 0.53425
 C133 C 0.97354 0.79101 0.48013
 H134 H 0.99003 0.79123 0.46523
 C135 C 0.95319 0.81154 0.47931
 H136 H 0.95389 0.82732 0.46341
 C137 C 0.95325 0.77065 0.51956
 H138 H 0.95383 0.75514 0.53567
 C139 C 0.93233 0.79077 0.51940
 H140 H 0.91690 0.79055 0.53544
 Zn141 Zn 1.00461 0.74778 0.50208
 N142 N 0.97341 0.77132 0.50021
 C143 C 0.98687 0.72570 0.45086
 N144 N 1.00615 0.72395 0.47111
 C145 C 1.02649 0.70442 0.47028
 C146 C 1.02821 0.68585 0.44824
 C147 C 0.98783 0.70754 0.42844
 C148 C 1.03459 0.79217 0.52147
 C149 C 1.05474 0.81231 0.52133
 C150 C 1.07616 0.78895 0.48268
 C151 C 1.05545 0.76931 0.48344
 N152 N 1.03517 0.77133 0.50261
 H153 H 0.97061 0.74105 0.45210
 H154 H 1.04128 0.70321 0.48691
 H155 H 1.04433 0.67020 0.44817
 H156 H 0.97247 0.70947 0.41237
 H157 H 1.01798 0.79351 0.53620
 H158 H 1.05378 0.82890 0.53636
 H159 H 1.09177 0.78750 0.46687
 H160 H 1.05521 0.75300 0.46820
 C161 C 0.93252 0.81189 0.49942
 C162 C 1.00286 0.69018 0.57968
 C163 C 1.07567 0.81104 0.50153
 C164 C 1.00868 0.68724 0.42694
 C165 C 0.48034 -0.00615 0.29955
 H166 H 0.49879 -0.01873 0.30116
 C167 C 0.46035 -0.00765 0.32003
 H168 H 0.46338 -0.02162 0.33734
 C169 C 0.45427 0.02790 0.27536
 H170 H 0.45225 0.04216 0.25825
 C171 C 0.43353 0.02670 0.29516
 H172 H 0.41562 0.04006 0.29313
 N173 N 0.47709 0.01158 0.27789
 C174 C 0.52636 -0.01765 0.20874
 H175 H 0.53939 0.00001 0.20569
 C176 C 0.52755 -0.03981 0.19026
 H177 H 0.54129 -0.03806 0.17289
 C178 C 0.49127 -0.03920 0.23413
 H179 H 0.47704 -0.03879 0.25120
 C180 C 0.49173 -0.06185 0.21617
 H181 H 0.47829 -0.07881 0.22079
 Zn182 Zn 0.50669 0.01409 0.25290
 N183 N 0.50847 -0.01773 0.23015
 C184 C 0.56087 -0.00013 0.27040
 N185 N 0.53900 0.01722 0.27423
 C186 C 0.53882 0.03643 0.29474
 C187 C 0.56116 0.03865 0.31254
 C188 C 0.58378 0.00155 0.28759
 C189 C 0.48214 0.04433 0.21003
 C190 C 0.47913 0.06569 0.19076
 C191 C 0.51730 0.08877 0.21199
 C192 C 0.51966 0.06689 0.23081
 N193 N 0.50221 0.04523 0.22947
 H194 H 0.56050 -0.01551 0.25423
 H195 H 0.52098 0.04966 0.29760
 H196 H 0.56013 0.05354 0.32923
 H197 H 0.60105 -0.01229 0.28402
 H198 H 0.46877 0.02669 0.20921
 H199 H 0.46310 0.06453 0.17535
 H200 H 0.53178 0.10550 0.21293
 H201 H 0.53582 0.06698 0.24606
 C202 C 0.50995 -0.06258 0.19350
 C203 C 0.43667 0.00902 0.31800
 C204 C 0.49703 0.08816 0.19142
 C205 C 0.58405 0.02098 0.30921
 C206 C 0.54060 -0.03549 0.70895
 H207 H 0.52582 -0.05193 0.70966
 C208 C 0.56133 -0.03624 0.68918
 H209 H 0.56272 -0.05365 0.67514
 C210 C 0.55590 0.00777 0.72557
 H211 H 0.55324 0.02526 0.73926
 C212 C 0.57707 0.00778 0.70616
 H213 H 0.59055 0.02535 0.70513
 N214 N 0.53800 -0.01354 0.72640
 C215 C 0.48988 -0.03873 0.79758
 H216 H 0.47643 -0.02082 0.79927
 C217 C 0.48970 -0.05900 0.81817
 H218 H 0.47601 -0.05638 0.83558
 C219 C 0.52522 -0.06278 0.77375
 H220 H 0.53936 -0.06406 0.75669
 C221 C 0.52557 -0.08366 0.79377
 H222 H 0.53962 -0.10104 0.79141
 Zn223 Zn 0.50656 -0.01187 0.74940
 N224 N 0.50729 -0.04103 0.77578
 C225 C 0.45014 -0.02038 0.73752
 N226 N 0.47501 -0.01440 0.72656
 C227 C 0.47784 -0.00907 0.69910
 C228 C 0.45536 -0.01033 0.68143
 C229 C 0.42698 -0.02158 0.72056
 C230 C 0.52385 0.02653 0.78909
 C231 C 0.52212 0.05043 0.80527
 C232 C 0.48199 0.06471 0.77935
 C233 C 0.48457 0.04062 0.76358
 N234 N 0.50509 0.02201 0.76887
 H235 H 0.44816 -0.02413 0.75941
 H236 H 0.49749 -0.00336 0.69085
 H237 H 0.45804 -0.00579 0.65969
 H238 H 0.40736 -0.02654 0.72954
 H239 H 0.53980 0.01123 0.79300
 H240 H 0.53678 0.05334 0.82177
 H241 H 0.46541 0.07920 0.77500
 H242 H 0.46990 0.03663 0.74739
 C243 C 0.50763 -0.08196 0.81641
 C244 C 0.57959 -0.01417 0.68728
 C245 C 0.50074 0.06970 0.80071
 C246 C 0.42954 -0.01670 0.69210
 Si247 Si 0.25642 -0.00694 0.50104
 Si248 Si 0.75675 0.00464 0.50026
 Si249 Si 0.49524 0.24872 0.98652
 Si250 Si 0.49094 0.75100 0.01505
 Si251 Si 0.99425 0.50006 0.24772
 Si252 Si -0.00800 0.49615 0.75091
 C253 C 0.13589 0.17665 0.48425
 C254 C 0.15792 0.15776 0.48492
 C255 C 0.15590 0.13285 0.49959
 C256 C 0.13159 0.12711 0.51386
 C257 C 0.10950 0.14575 0.51290
 C258 C 0.11133 0.17058 0.49792
 N259 N 0.17807 0.11308 0.49865
 N260 N 0.17823 0.09157 0.51388
 C261 C 0.19901 0.07042 0.51223
 C262 C 0.19815 0.04831 0.53088
 C263 C 0.21628 0.02586 0.52823
 C264 C 0.23546 0.02512 0.50671
 C265 C 0.23696 0.04766 0.48847
 C266 C 0.21888 0.07026 0.49123
 H267 H 0.13773 0.19559 0.47244
 H268 H 0.17649 0.16238 0.47373
 H269 H 0.12944 0.10797 0.52527
 H270 H 0.09089 0.14074 0.52385
 H271 H 0.18283 0.04813 0.54703
 H272 H 0.21459 0.00852 0.54232
 H273 H 0.25147 0.04752 0.47161
 H274 H 0.21983 0.08708 0.47647
 C275 C 0.64791 0.60357 -0.02454
 C276 C 0.62698 0.62362 -0.02532
 C277 C 0.61900 0.63752 -0.00123
 C278 C 0.63237 0.63129 0.02380
 C279 C 0.65317 0.61106 0.02466
 C280 C 0.66108 0.59691 0.00051
 N281 N 0.59679 0.65720 -0.00266
 N282 N 0.58964 0.67201 0.01791
 C283 C 0.56688 0.69105 0.01654
 C284 C 0.56168 0.70862 0.03898
 C285 C 0.53927 0.72699 0.03853
 C286 C 0.52173 0.72793 0.01558
 C287 C 0.52671 0.71012 -0.00677
 C288 C 0.54925 0.69195 -0.00644
 H289 H 0.65331 0.59275 -0.04339
 H290 H 0.61675 0.62815 -0.04470
 H291 H 0.62652 0.64174 0.04272
 H292 H 0.66310 0.60649 0.04419
 H293 H 0.57495 0.70794 0.05692
 H294 H 0.53549 0.74002 0.05633
 H295 H 0.51311 0.71026 -0.02447
 H296 H 0.55265 0.67838 -0.02394
 C297 C 0.92136 -0.13750 0.49697
 C298 C 0.90279 -0.11531 0.49811
 C299 C 0.87498 -0.11991 0.50258
 C300 C 0.86581 -0.14714 0.50620
 C301 C 0.88449 -0.16944 0.50529
 C302 C 0.91243 -0.16481 0.50047
 N303 N 0.85674 -0.09645 0.50322
 N304 N 0.83086 -0.09838 0.50508
 C305 C 0.81363 -0.07407 0.50540
 C306 C 0.78517 -0.07676 0.50388
 C307 C 0.76815 -0.05317 0.50278
 C308 C 0.77945 -0.02663 0.50301
 C309 C 0.80785 -0.02398 0.50581
 C310 C 0.82483 -0.04745 0.50675
 H311 H 0.94282 -0.13326 0.49371
 H312 H 0.91007 -0.09441 0.49542
 H313 H 0.84436 -0.15114 0.50973
 H314 H 0.87708 -0.19030 0.50798
 H315 H 0.77622 -0.09713 0.50312
 H316 H 0.74620 -0.05564 0.50132
 H317 H 0.81715 -0.00389 0.50730
 H318 H 0.84672 -0.04475 0.50846
 C319 C 0.31905 0.37556 1.01805
 C320 C 0.33758 0.35315 1.01726
 C321 C 0.35942 0.35300 0.99854
 C322 C 0.36243 0.37551 0.98040
 C323 C 0.34415 0.39799 0.98138
 C324 C 0.32239 0.39835 1.00032
 N325 N 0.37894 0.33052 0.99904
 N326 N 0.39771 0.32847 0.98091
 C327 C 0.41856 0.30732 0.98157
 C328 C 0.43779 0.30646 0.96020
 C329 C 0.46000 0.28797 0.96136
 C330 C 0.46345 0.27028 0.98412
 C331 C 0.44357 0.27019 1.00501
 C332 C 0.42124 0.28868 1.00381
 H333 H 0.30254 0.37541 1.03295
 H334 H 0.33509 0.33600 1.03143
 H335 H 0.37916 0.37597 0.96578
 H336 H 0.34699 0.41513 0.96726
 H337 H 0.43593 0.32068 0.94296
 H338 H 0.47503 0.28817 0.94494
 H339 H 0.44557 0.25644 1.02257
 H340 H 0.40655 0.28893 1.02054
 C341 C 0.92250 0.13733 0.49658
 C342 C 0.90272 0.11685 0.49484
 C343 C 0.87490 0.12381 0.49684
 C344 C 0.86692 0.15171 0.50021
 C345 C 0.88672 0.17235 0.50124
 C346 C 0.91465 0.16523 0.49962
 N347 N 0.85532 0.10218 0.49501
 N348 N 0.83086 0.10490 0.50372
 C349 C 0.81194 0.08269 0.50124
 C350 C 0.79035 0.08069 0.52011
 C351 C 0.77327 0.05768 0.51968
 C352 C 0.77737 0.03671 0.50001
 C353 C 0.79769 0.03976 0.47988
 C354 C 0.81521 0.06231 0.48077
 H355 H 0.94395 0.13150 0.49504
 H356 H 0.90907 0.09543 0.49215
 H357 H 0.84548 0.15752 0.50158
 H358 H 0.88032 0.19381 0.50349
 H359 H 0.78740 0.09646 0.53577
 H360 H 0.75716 0.05623 0.53489
 H361 H 0.80070 0.02411 0.46410
 H362 H 0.83144 0.06373 0.46565
 C363 C 0.32745 0.61631 -0.02769
 C364 C 0.34701 0.63717 -0.02745
 C365 C 0.36162 0.64297 -0.00329
 C366 C 0.35610 0.62792 0.02090
 C367 C 0.33645 0.60719 0.02073
 C368 C 0.32203 0.60101 -0.00362
 N369 N 0.38227 0.66374 -0.00399
 N370 N 0.39754 0.66854 0.01674
 C371 C 0.41853 0.68894 0.01613
 C372 C 0.43593 0.69137 0.03897
 C373 C 0.45727 0.71031 0.03866
 C374 C 0.46122 0.72742 0.01564
 C375 C 0.44376 0.72512 -0.00726
 C376 C 0.42251 0.70603 -0.00703
 H377 H 0.31649 0.61218 -0.04667
 H378 H 0.35103 0.64865 -0.04621
 H379 H 0.36713 0.63199 0.03984
 H380 H 0.33300 0.59553 0.03950
 H381 H 0.43318 0.67822 0.05687
 H382 H 0.47083 0.71148 0.05633
 H383 H 0.44680 0.73757 -0.02555
 H384 H 0.40943 0.70443 -0.02501
 C385 C 0.08751 -0.13875 0.50203
 C386 C 0.10649 -0.11751 0.50032
 C387 C 0.13428 -0.12362 0.49651
 C388 C 0.14300 -0.15140 0.49411
 C389 C 0.12397 -0.17273 0.49561
 C390 C 0.09605 -0.16659 0.49977
 N391 N 0.15305 -0.10118 0.49555
 N392 N 0.17886 -0.10475 0.49412
 C393 C 0.19696 -0.08168 0.49370
 C394 C 0.22522 -0.08640 0.49576
 C395 C 0.24313 -0.06410 0.49722
 C396 C 0.23295 -0.03676 0.49667
 C397 C 0.20473 -0.03210 0.49327
 C398 C 0.18685 -0.05432 0.49201
 H399 H 0.06609 -0.13338 0.50479
 H400 H 0.09954 -0.09617 0.50212
 H401 H 0.16443 -0.15659 0.49116
 H402 H 0.13109 -0.19401 0.49393
 H403 H 0.23332 -0.10738 0.49682
 H404 H 0.26480 -0.06834 0.49919
 H405 H 0.19629 -0.01133 0.49172
 H406 H 0.16512 -0.05007 0.48993
 C407 C 0.62978 0.41592 0.99099
 C408 C 0.60850 0.39700 0.99098
 C409 C 0.61377 0.36889 0.99589
 C410 C 0.64074 0.35977 1.00109
 C411 C 0.66213 0.37877 1.00127
 C412 C 0.65686 0.40703 0.99606
 N413 N 0.59125 0.35029 0.99525
 N414 N 0.59388 0.32417 0.99808
 C415 C 0.57048 0.30662 0.99690
 C416 C 0.57413 0.27778 0.99732
 C417 C 0.55157 0.26039 0.99476
 C418 C 0.52513 0.27171 0.99159
 C419 C 0.52141 0.30056 0.99230
 C420 C 0.54386 0.31787 0.99476
 H421 H 0.62500 0.43761 0.98739
 H422 H 0.58777 0.40425 0.98705
 H423 H 0.64527 0.33808 1.00494
 H424 H 0.68282 0.37134 1.00511
 H425 H 0.59450 0.26880 0.99918
 H426 H 0.55478 0.23814 0.99479
 H427 H 0.50128 0.30997 0.99077
 H428 H 0.54037 0.34007 0.99477
 C429 C 0.49880 0.13813 1.17672
 C430 C 0.49815 0.15850 1.15610
 C431 C 0.49441 0.15116 1.12839
 C432 C 0.49089 0.12314 1.12155
 C433 C 0.49137 0.10283 1.14210
 C434 C 0.49548 0.11006 1.16990
 N435 N 0.49466 0.17224 1.10749
 N436 N 0.49359 0.16597 1.08198
 C437 C 0.49388 0.18605 1.06023
 C438 C 0.49443 0.17656 1.03298
 C439 C 0.49487 0.19524 1.01101
 C440 C 0.49439 0.22386 1.01595
 C441 C 0.49406 0.23351 1.04329
 C442 C 0.49377 0.21472 1.06539
 H443 H 0.50178 0.14432 1.19800
 H444 H 0.50083 0.18001 1.16167
 H445 H 0.48796 0.11686 1.10029
 H446 H 0.48915 0.08137 1.13614
 H447 H 0.49470 0.15452 1.02878
 H448 H 0.49573 0.18706 0.99026
 H449 H 0.49404 0.25554 1.04751
 H450 H 0.49345 0.22253 1.08634
 C451 C 0.02799 0.66187 0.61558
 C452 C 0.02831 0.64252 0.63708
 C453 C 0.00392 0.63120 0.64665
 C454 C -0.02107 0.64004 0.63495
 C455 C -0.02147 0.65961 0.61363
 C456 C 0.00309 0.67052 0.60341
 N457 N 0.00520 0.61008 0.66744
 N458 N -0.01568 0.59626 0.67437
 C459 C -0.01415 0.57450 0.69447
 C460 C -0.03640 0.55683 0.69735
 C461 C -0.03466 0.53392 0.71497
 C462 C -0.01069 0.52856 0.73016
 C463 C 0.01113 0.54699 0.72834
 C464 C 0.00953 0.56971 0.71043
 H465 H 0.04732 0.66943 0.60800
 H466 H 0.04770 0.63578 0.64585
 H467 H -0.04023 0.63171 0.64215
 H468 H -0.04103 0.66618 0.60515
 H469 H -0.05478 0.56032 0.68524
 H470 H -0.05178 0.51998 0.71621
 H471 H 0.02967 0.54360 0.74013
 H472 H 0.02690 0.58326 0.70875
 C473 C 0.53259 0.88352 -0.15330
 C474 C 0.53279 0.86349 -0.13240
 C475 C 0.50845 0.85605 -0.11936
 C476 C 0.48366 0.86855 -0.12781
 C477 C 0.48338 0.88839 -0.14887
 C478 C 0.50787 0.89631 -0.16175
 N479 N 0.50949 0.83612 -0.09741
 N480 N 0.48862 0.83084 -0.08272
 C481 C 0.48949 0.81112 -0.06059
 C482 C 0.46683 0.80917 -0.04309
 C483 C 0.46732 0.79086 -0.02072
 C484 C 0.49031 0.77380 -0.01591
 C485 C 0.51302 0.77558 -0.03348
 C486 C 0.51265 0.79415 -0.05570
 H487 H 0.55187 0.88936 -0.16243
 H488 H 0.55204 0.85406 -0.12601
 H489 H 0.46453 0.86299 -0.11819
 H490 H 0.46392 0.89740 -0.15518
 H491 H 0.44893 0.82223 -0.04655
 H492 H 0.44979 0.79010 -0.00709
 H493 H 0.53125 0.76314 -0.02979
 H494 H 0.53047 0.79536 -0.06889
 C495 C 1.01759 0.31865 0.37072
 C496 C 1.01726 0.33780 0.34897
 C497 C 1.00338 0.36314 0.35165
 C498 C 0.98983 0.36925 0.37647
 C499 C 0.99034 0.35039 0.39833
 C500 C 1.00422 0.32452 0.39606
 N501 N 1.00387 0.38272 0.32937
 N502 N 0.98876 0.40443 0.32974
 C503 C 0.98940 0.42521 0.30865
 C504 C 0.97050 0.44719 0.31005
 C505 C 0.97157 0.46894 0.29111
 C506 C 0.99185 0.46923 0.27067
 C507 C 1.01028 0.44674 0.26858
 C508 C 1.00910 0.42481 0.28750
 H509 H 1.02774 0.29898 0.36695
 H510 H 1.02770 0.33276 0.32986
 H511 H 0.97931 0.38895 0.37927
 H512 H 0.98073 0.35707 0.41731
 H513 H 0.95515 0.44765 0.32618
 H514 H 0.95680 0.48575 0.29284
 H515 H 1.02570 0.44614 0.25259
 H516 H 1.02386 0.40793 0.28595
 C517 C 0.53359 0.90906 0.15796
 C518 C 0.53351 0.88774 0.13848
 C519 C 0.51036 0.87158 0.13478
 C520 C 0.48718 0.87670 0.15114
 C521 C 0.48711 0.89805 0.17067
 C522 C 0.51026 0.91498 0.17437
 N523 N 0.51079 0.85068 0.11379
 N524 N 0.49081 0.83460 0.10955
 C525 C 0.49144 0.81435 0.08791
 C526 C 0.46936 0.79642 0.08485
 C527 C 0.46912 0.77699 0.06341
 C528 C 0.49105 0.77529 0.04481
 C529 C 0.51308 0.79330 0.04776
 C530 C 0.51340 0.81259 0.06922
 H531 H 0.55245 0.92020 0.16048
 H532 H 0.55163 0.88380 0.12614
 H533 H 0.46891 0.86458 0.14848
 H534 H 0.46823 0.90185 0.18172
 H535 H 0.45221 0.79771 0.09896
 H536 H 0.45162 0.76373 0.06118
 H537 H 0.53002 0.79252 0.03335
 H538 H 0.53063 0.82631 0.07098
 C539 C 0.00928 0.36226 0.58026
 C540 C 0.00762 0.38359 0.59964
 C541 C 0.00585 0.37762 0.62784
 C542 C 0.00572 0.34985 0.63660
 C543 C 0.00727 0.32840 0.61717
 C544 C 0.00912 0.33441 0.58878
 N545 N 0.00384 0.40024 0.64685
 N546 N 0.00308 0.39709 0.67295
 C547 C 0.00071 0.42052 0.69104
 C548 C 0.00118 0.41646 0.71971
 C549 C -0.00132 0.43909 0.73766
 C550 C -0.00469 0.46601 0.72710
 C551 C -0.00477 0.47008 0.69841
 C552 C -0.00216 0.44757 0.68053
 H553 H 0.01020 0.36758 0.55855
 H554 H 0.00758 0.40492 0.59266
 H555 H 0.00433 0.34476 0.65834
 H556 H 0.00727 0.30714 0.62433
 H557 H 0.00352 0.39576 0.72812
 H558 H -0.00076 0.43560 0.75977
 H559 H -0.00676 0.49059 0.68961
 H560 H -0.00245 0.45135 0.65848
 C561 C 0.47111 0.10168 0.82885
 C562 C 0.46788 0.12362 0.84741
 C563 C 0.49056 0.13851 0.85632
 C564 C 0.51667 0.13150 0.84608
 C565 C 0.51997 0.10942 0.82763
 C566 C 0.49724 0.09413 0.81900
 N567 N 0.48668 0.15946 0.87692
 N568 N 0.50604 0.17473 0.88520
 C569 C 0.50222 0.19438 0.90707
 C570 C 0.52413 0.21100 0.91492
 C571 C 0.52189 0.22839 0.93793
 C572 C 0.49774 0.22905 0.95356
 C573 C 0.47536 0.21339 0.94498
 C574 C 0.47754 0.19613 0.92193
 H575 H 0.45327 0.09007 0.82287
 H576 H 0.44769 0.12870 0.85531
 H577 H 0.53454 0.14268 0.85275
 H578 H 0.54030 0.10422 0.82018
 H579 H 0.54321 0.20994 0.90357
 H580 H 0.53929 0.24062 0.94377
 H581 H 0.45648 0.21379 0.95669
 H582 H 0.46026 0.18355 0.91628
 C583 C 1.03484 0.65901 0.39191
 C584 C 1.03572 0.63964 0.37045
 C585 C 1.01157 0.62816 0.36035
 C586 C 0.98635 0.63650 0.37182
 C587 C 0.98543 0.65584 0.39325
 C588 C 1.00967 0.66723 0.40365
 N589 N 1.01321 0.60759 0.33908
 N590 N 0.99190 0.59637 0.32927
 C591 C 0.99315 0.57516 0.30864
 C592 C 0.96875 0.56322 0.29984
 C593 C 0.96924 0.54134 0.28100
 C594 C 0.99419 0.53109 0.27061
 C595 C 1.01864 0.54353 0.27884
 C596 C 1.01817 0.56541 0.29778
 H597 H 1.05384 0.66766 0.39922
 H598 H 1.05528 0.63340 0.36179
 H599 H 0.96738 0.62783 0.36447
 H600 H 0.96576 0.66142 0.40210
 H601 H 0.94935 0.57057 0.30801
 H602 H 0.95007 0.53220 0.27488
 H603 H 1.03816 0.53619 0.27114
 H604 H 1.03731 0.57438 0.30423
 C605 C 1.13427 0.51545 0.08423
 C606 C 1.11276 0.51495 0.10309
 C607 C 1.11685 0.50495 0.12982
 C608 C 1.14292 0.49522 0.13767
 C609 C 1.16459 0.49543 0.11873
 C610 C 1.16076 0.50568 0.09154
 N611 N 1.09392 0.50466 0.14818
 N612 N 1.09562 0.49784 0.17355
 C613 C 1.07173 0.49778 0.19074
 C614 C 1.07449 0.49350 0.21924
 C615 C 1.05139 0.49402 0.23636
 C616 C 1.02521 0.49867 0.22513
 C617 C 1.02246 0.50239 0.19651
 C618 C 1.04546 0.50209 0.17948
 H619 H 1.12944 0.52236 0.06351
 H620 H 1.09262 0.52221 0.09673
 H621 H 1.14654 0.48744 0.15837
 H622 H 1.18447 0.48838 0.12593
 H623 H 1.09457 0.49000 0.22820
 H624 H 1.05397 0.49071 0.25834
 H625 H 1.00262 0.50571 0.18709
 H626 H 1.04267 0.50522 0.15750
 C627 C 0.59211 -0.02049 0.63758
 C628 C 0.61074 -0.01882 0.61583
 C629 C 0.63747 -0.01008 0.62058
 C630 C 0.64551 -0.00295 0.64752
 C631 C 0.62679 -0.00441 0.66934
 C632 C 0.59989 -0.01323 0.66456
 N633 N 0.65569 -0.00824 0.59755
 N634 N 0.68086 -0.00233 0.60004
 C635 C 0.69832 -0.00035 0.57637
 C636 C 0.72649 0.00302 0.58015
 C637 C 0.74394 0.00464 0.55732
 C638 C 0.73331 0.00341 0.53043
 C639 C 0.70512 0.00002 0.52661
 C640 C 0.68774 -0.00185 0.54938
 H641 H 0.57142 -0.02690 0.63317
 H642 H 0.60429 -0.02422 0.59514
 H643 H 0.66610 0.00392 0.65165
 H644 H 0.63335 0.00119 0.68994
 H645 H 0.73494 0.00412 0.60081
 H646 H 0.76573 0.00688 0.56064
 H647 H 0.69643 -0.00158 0.50613
 H648 H 0.66605 -0.00450 0.54586
 C649 C -0.16789 0.53088 0.89359
 C650 C -0.14812 0.53246 0.87284
 C651 C -0.13784 0.50838 0.86033
 C652 C -0.14781 0.48252 0.86861
 C653 C -0.16742 0.48087 0.88956
 C654 C -0.17754 0.50504 0.90249
 N655 N -0.11649 0.51072 0.84026
 N656 N -0.10776 0.49012 0.82625
 C657 C -0.08546 0.49247 0.80724
 C658 C -0.07848 0.46982 0.79050
 C659 C -0.05582 0.47095 0.77291
 C660 C -0.03961 0.49466 0.77223
 C661 C -0.04697 0.51761 0.78847
 C662 C -0.06974 0.51659 0.80585
 H663 H -0.17557 0.54994 0.90269
 H664 H -0.14063 0.55251 0.86660
 H665 H -0.14000 0.46358 0.85937
 H666 H -0.17407 0.46062 0.89613
 H667 H -0.09046 0.45115 0.79132
 H668 H -0.05087 0.45312 0.76029
 H669 H -0.03477 0.53615 0.78810
 H670 H -0.07467 0.53438 0.81860
 C671 C 0.42399 0.01116 0.36793
 C672 C 0.40450 0.01113 0.38900
 C673 C 0.37674 0.00813 0.38281
 C674 C 0.36850 0.00558 0.35510
 C675 C 0.38796 0.00611 0.33392
 C676 C 0.41589 0.00869 0.34020
 N677 N 0.35751 0.00776 0.40508
 N678 N 0.33284 0.00025 0.40200
 C679 C 0.31413 0.00015 0.42477
 C680 C 0.28984 -0.01473 0.42261
 C681 C 0.27211 -0.01657 0.44520
 C682 C 0.27832 -0.00307 0.47001
 C683 C 0.30208 0.01270 0.47185
 C684 C 0.32002 0.01414 0.44949
 H685 H 0.44537 0.01348 0.37324
 H686 H 0.41106 0.01320 0.41028
 H687 H 0.34710 0.00337 0.34986
 H688 H 0.38128 0.00412 0.31267
 H689 H 0.28502 -0.02549 0.40364
 H690 H 0.25375 -0.02870 0.44333
 H691 H 0.30710 0.02339 0.49082
 H692 H 0.33852 0.02600 0.45157
 C693 C 0.13099 0.49244 0.91717
 C694 C 0.10922 0.49226 0.89851
 C695 C 0.11393 0.49471 0.87015
 C696 C 0.14088 0.49757 0.86051
 C697 C 0.16277 0.49789 0.87924
 C698 C 0.15803 0.49517 0.90778
 N699 N 0.09088 0.49442 0.85189
 N700 N 0.09295 0.49537 0.82569
 C701 C 0.06909 0.49523 0.80839
 C702 C 0.07212 0.49526 0.77961
 C703 C 0.04905 0.49536 0.76240
 C704 C 0.02267 0.49579 0.77381
 C705 C 0.01965 0.49529 0.80261
 C706 C 0.04263 0.49509 0.81977
 H707 H 0.12661 0.49083 0.93904
 H708 H 0.08853 0.49023 0.90617
 H709 H 0.14498 0.49955 0.83863
 H710 H 0.18341 0.49990 0.87143
 H711 H 0.09237 0.49520 0.77054
 H712 H 0.05179 0.49525 0.74020
 H713 H -0.00037 0.49501 0.81205
 H714 H 0.03966 0.49488 0.84193
 C715 C 0.61569 0.04760 0.34012
 C716 C 0.63645 0.04847 0.35998
 C717 C 0.64967 0.02409 0.36871
 C718 C 0.64217 -0.00131 0.35701
 C719 C 0.62122 -0.00226 0.33734
 C720 C 0.60750 0.02217 0.32884
 N721 N 0.66949 0.02553 0.39048
 N722 N 0.68415 0.00472 0.39770
 C723 C 0.70273 0.00590 0.42058
 C724 C 0.72036 -0.01668 0.42571
 C725 C 0.73738 -0.01694 0.44898
 C726 C 0.73655 0.00523 0.46767
 C727 C 0.71948 0.02819 0.46215
 C728 C 0.70270 0.02858 0.43876
 H729 H 0.60595 0.06686 0.33373
 H730 H 0.64206 0.06818 0.36884
 H731 H 0.65195 -0.02048 0.36361
 H732 H 0.61521 -0.02225 0.32948
 H733 H 0.72064 -0.03424 0.41181
 H734 H 0.75073 -0.03465 0.45245
 H735 H 0.71870 0.04557 0.47628
 H736 H 0.68923 0.04626 0.43530
 C737 C 0.82821 0.46629 0.11236
 C738 C 0.84807 0.46506 0.13318
 C739 C 0.86158 0.48901 0.14146
 C740 C 0.85462 0.51448 0.12900
 C741 C 0.83470 0.51578 0.10827
 C742 C 0.82144 0.49165 0.09954
 N743 N 0.88279 0.48682 0.16186
 N744 N 0.89672 0.50763 0.16918
 C745 C 0.91848 0.50555 0.18897
 C746 C 0.93397 0.52905 0.19450
 C747 C 0.95628 0.52745 0.21254
 C748 C 0.96325 0.50230 0.22544
 C749 C 0.94749 0.47882 0.22036
 C750 C 0.92522 0.48039 0.20219
 H751 H 0.81813 0.44743 0.10630
 H752 H 0.85322 0.44531 0.14264
 H753 H 0.86480 0.53331 0.13499
 H754 H 0.83018 0.53555 0.09856
 H755 H 0.92903 0.54852 0.18439
 H756 H 0.96836 0.54573 0.21608
 H757 H 0.95268 0.45915 0.22993
 H758 H 0.91357 0.46192 0.19822
 C759 C 0.38065 -0.00460 0.68075
 C760 C 0.35872 -0.00381 0.66212
 C761 C 0.36117 -0.01630 0.63614
 C762 C 0.38571 -0.03014 0.62913
 C763 C 0.40767 -0.03075 0.64761
 C764 C 0.40549 -0.01770 0.67346
 N765 N 0.33912 -0.01357 0.61673
 N766 N 0.33994 -0.02553 0.59332
 C767 C 0.31887 -0.02203 0.57299
 C768 C 0.32087 -0.03704 0.54838
 C769 C 0.30169 -0.03291 0.52732
 C770 C 0.28013 -0.01367 0.53058
 C771 C 0.27808 0.00140 0.55529
 C772 C 0.29721 -0.00287 0.57647
 H773 H 0.37851 0.00581 0.70046
 H774 H 0.33995 0.00699 0.66773
 H775 H 0.38815 -0.03998 0.60918
 H776 H 0.42648 -0.04126 0.64161
 H777 H 0.33769 -0.05159 0.54531
 H778 H 0.30431 -0.04411 0.50813
 H779 H 0.26211 0.01681 0.55822
 H780 H 0.29544 0.00924 0.59521
   
