data_POSCAR
  _audit_creation_date              2014-09-24
  _audit_creation_method            'ToBaCCo'
  _symmetry_space_group_name_H-M    'P1'
  _symmetry_Int_Tables_number       1
  _symmetry_cell_setting            triclinic
  loop_
  _symmetry_equiv_pos_as_xyz
 x,y,z
_cell_length_a 33.5293
_cell_length_b 37.5855
_cell_length_c 34.0926
_cell_angle_alpha 89.884900
_cell_angle_beta 90.183100
_cell_angle_gamma 89.756200
loop_
  _atom_site_label
  _atom_site_type_symbol
  _atom_site_fract_x
  _atom_site_fract_y
  _atom_site_fract_z
C1 C 1.20113 0.26881 0.31362
 H2 H 1.20339 0.24094 0.32136
 C3 C 1.17805 0.29187 0.33651
 H4 H 1.16247 0.28173 0.36194
 C5 C 1.21892 0.31628 0.27141
 H6 H 1.23505 0.32591 0.24623
 C7 C 1.19603 0.34007 0.29322
 H8 H 1.19508 0.36772 0.28448
 N9 N 1.22073 0.28128 0.28154
 C10 C 1.23382 0.20526 0.18678
 H11 H 1.26477 0.20973 0.17947
 C12 C 1.21070 0.18276 0.16358
 H13 H 1.22386 0.16989 0.13831
 C14 C 1.17900 0.21612 0.22891
 H15 H 1.16677 0.22914 0.25441
 C16 C 1.15491 0.19354 0.20668
 H17 H 1.12427 0.18941 0.21533
 Zn18 Zn 1.25160 0.24995 0.25013
 N19 N 1.21784 0.22113 0.21898
 C20 C 1.28685 0.18528 0.27415
 N21 N 1.28364 0.22048 0.28279
 C22 C 1.30246 0.23452 0.31457
 C23 C 1.32559 0.21282 0.33921
 C24 C 1.30988 0.16278 0.29766
 C25 C 1.26668 0.29128 0.18351
 C26 C 1.28840 0.31335 0.15861
 C27 C 1.34577 0.30547 0.20085
 C28 C 1.32302 0.28332 0.22487
 N29 N 1.28406 0.27710 0.21612
 H30 H 1.27164 0.17449 0.24894
 H31 H 1.29933 0.26259 0.32087
 H32 H 1.34020 0.22466 0.36426
 H33 H 1.31217 0.13485 0.29012
 H34 H 1.23559 0.28606 0.17736
 H35 H 1.27377 0.32498 0.13331
 H36 H 1.37648 0.31103 0.20852
 H37 H 1.33623 0.27182 0.25094
 C38 C 1.17097 0.17636 0.17383
 C39 C 1.17505 0.32787 0.32603
 C40 C 1.32827 0.32096 0.16753
 C41 C 1.32940 0.17632 0.33088
 C42 C 0.70036 -0.23087 0.31031
 H43 H 0.70285 -0.25878 0.31777
 C44 C 0.67749 -0.20808 0.33368
 H45 H 0.66225 -0.21846 0.35918
 C46 C 0.71754 -0.18301 0.26836
 H47 H 0.73340 -0.17314 0.24313
 C48 C 0.69483 -0.15947 0.29065
 H49 H 0.69370 -0.13174 0.28221
 N50 N 0.71957 -0.21807 0.27816
 C51 C 0.73299 -0.29399 0.18349
 H52 H 0.76393 -0.28943 0.17618
 C53 C 0.71001 -0.31668 0.16041
 H54 H 0.72325 -0.32964 0.13523
 C55 C 0.67808 -0.28313 0.22552
 H56 H 0.66578 -0.27003 0.25094
 C57 C 0.65413 -0.30590 0.20341
 H58 H 0.62351 -0.31011 0.21208
 Zn59 Zn 0.75046 -0.24909 0.24661
 N60 N 0.71691 -0.27806 0.21559
 C61 C 0.78616 -0.31345 0.27091
 N62 N 0.78267 -0.27821 0.27928
 C63 C 0.80132 -0.26379 0.31097
 C64 C 0.82461 -0.28516 0.33576
 C65 C 0.80937 -0.33561 0.29463
 C66 C 0.76520 -0.20735 0.18029
 C67 C 0.78692 -0.18524 0.15545
 C68 C 0.84454 -0.19387 0.19722
 C69 C 0.82179 -0.21604 0.22117
 N70 N 0.78270 -0.22187 0.21266
 H71 H 0.77101 -0.32452 0.24581
 H72 H 0.79790 -0.23570 0.31707
 H73 H 0.83917 -0.27342 0.36092
 H74 H 0.81200 -0.36361 0.28759
 H75 H 0.73402 -0.21235 0.17431
 H76 H 0.77224 -0.17328 0.13037
 H77 H 0.87535 -0.18859 0.20473
 H78 H 0.83511 -0.22786 0.24700
 C79 C 0.67032 -0.32320 0.17071
 C80 C 0.67431 -0.17201 0.32358
 C81 C 0.82691 -0.17799 0.16420
 C82 C 0.82868 -0.32152 0.32753
 C83 C 0.70102 0.26934 -0.19062
 H84 H 0.70346 0.24145 -0.18303
 C85 C 0.67834 0.29230 -0.16723
 H86 H 0.66322 0.28206 -0.14159
 C87 C 0.71809 0.31699 -0.23290
 H88 H 0.73382 0.32673 -0.25826
 C89 C 0.69558 0.34068 -0.21059
 H90 H 0.69448 0.36837 -0.21916
 N91 N 0.72009 0.28195 -0.22295
 C92 C 0.73278 0.20555 -0.31753
 H93 H 0.76363 0.21011 -0.32515
 C94 C 0.70960 0.18270 -0.34027
 H95 H 0.72262 0.16966 -0.36550
 C96 C 0.67826 0.21653 -0.27506
 H97 H 0.66618 0.22971 -0.24959
 C98 C 0.65412 0.19363 -0.29684
 H99 H 0.62360 0.18943 -0.28786
 Zn100 Zn 0.75082 0.25078 -0.25465
 N101 N 0.71699 0.22162 -0.28536
 C102 C 0.78711 0.18651 -0.23058
 N103 N 0.78338 0.22171 -0.22210
 C104 C 0.80196 0.23612 -0.19035
 C105 C 0.82535 0.21476 -0.16560
 C106 C 0.81043 0.16437 -0.20690
 C107 C 0.76509 0.29242 -0.32126
 C108 C 0.78638 0.31493 -0.34606
 C109 C 0.84413 0.30702 -0.30429
 C110 C 0.82174 0.28449 -0.28040
 N111 N 0.78279 0.27809 -0.28892
 H112 H 0.77203 0.17544 -0.25572
 H113 H 0.79838 0.26416 -0.18414
 H114 H 0.83982 0.22650 -0.14038
 H115 H 0.81320 0.13640 -0.21402
 H116 H 0.73398 0.28705 -0.32720
 H117 H 0.77106 0.32661 -0.37089
 H118 H 0.87481 0.31264 -0.29650
 H119 H 0.83521 0.27288 -0.25452
 C120 C 0.67000 0.17619 -0.32960
 C121 C 0.67521 0.32834 -0.17747
 C122 C 0.82638 0.32287 -0.33744
 C123 C 0.82962 0.17843 -0.17391
 C124 C 1.19769 -0.23471 -0.18711
 H125 H 1.20073 -0.26281 -0.18079
 C126 C 1.17466 -0.21303 -0.16266
 H127 H 1.15984 -0.22457 -0.13756
 C128 C 1.21379 -0.18525 -0.22725
 H129 H 1.22931 -0.17435 -0.25217
 C130 C 1.19085 -0.16280 -0.20387
 H131 H 1.18872 -0.13477 -0.21105
 N132 N 1.21664 -0.22054 -0.21872
 C133 C 1.23414 -0.29408 -0.31488
 H134 H 1.26528 -0.28905 -0.32085
 C135 C 1.21248 -0.31664 -0.33929
 H136 H 1.22722 -0.32896 -0.36397
 C137 C 1.17746 -0.28461 -0.27473
 H138 H 1.16401 -0.27215 -0.24947
 C139 C 1.15477 -0.30725 -0.29825
 H140 H 1.12389 -0.31232 -0.29093
 Zn141 Zn 1.24872 -0.25007 -0.25071
 N142 N 1.21655 -0.27890 -0.28311
 C143 C 1.28423 -0.31459 -0.22666
 N144 N 1.28111 -0.27930 -0.21837
 C145 C 1.30015 -0.26492 -0.18688
 C146 C 1.32358 -0.28637 -0.16229
 C147 C 1.30758 -0.33681 -0.20316
 C148 C 1.26289 -0.20633 -0.31539
 C149 C 1.28452 -0.18409 -0.34015
 C150 C 1.34263 -0.19388 -0.29935
 C151 C 1.31996 -0.21619 -0.27548
 N152 N 1.28069 -0.22155 -0.28358
 H153 H 1.26867 -0.32566 -0.25151
 H154 H 1.29693 -0.23682 -0.18078
 H155 H 1.33850 -0.27467 -0.13731
 H156 H 1.30995 -0.36483 -0.21017
 H157 H 1.23162 -0.21111 -0.32114
 H158 H 1.26964 -0.17172 -0.36487
 H159 H 1.37365 -0.18909 -0.29226
 H160 H 1.33358 -0.22869 -0.25020
 C161 C 1.17244 -0.32364 -0.33075
 C162 C 1.17120 -0.17664 -0.17111
 C163 C 1.32475 -0.17746 -0.33191
 C164 C 1.32735 -0.32275 -0.17052
 C165 C 0.26409 0.20543 0.68669
 H166 H 0.23283 0.21043 0.68088
 C167 C 0.28583 0.18319 0.66190
 H168 H 0.27103 0.17110 0.63709
 C169 C 0.32101 0.21454 0.72683
 H170 H 0.33451 0.22669 0.75227
 C171 C 0.34378 0.19221 0.70295
 H172 H 0.37477 0.18712 0.71014
 N173 N 0.28179 0.22034 0.71859
 C174 C 0.20117 0.23295 0.81715
 H175 H 0.20453 0.26093 0.82367
 C176 C 0.17848 0.21131 0.84189
 H177 H 0.16444 0.22313 0.86723
 C178 C 0.21561 0.18392 0.77594
 H179 H 0.23017 0.17322 0.75033
 C180 C 0.19301 0.16146 0.79957
 H181 H 0.19034 0.13364 0.79173
 Zn182 Zn 0.24979 0.24877 0.75180
 N183 N 0.21908 0.21901 0.78486
 C184 C 0.17697 0.28226 0.72996
 N185 N 0.21581 0.27707 0.71999
 C186 C 0.23152 0.29237 0.68733
 C187 C 0.20811 0.31454 0.66371
 C188 C 0.15260 0.30451 0.70730
 C189 C 0.30152 0.26497 0.81494
 C190 C 0.32478 0.28693 0.83885
 C191 C 0.30832 0.33649 0.79651
 C192 C 0.28514 0.31377 0.77369
 N193 N 0.28225 0.27868 0.78308
 H194 H 0.16498 0.26967 0.75583
 H195 H 0.26246 0.28772 0.67999
 H196 H 0.22106 0.32701 0.63810
 H197 H 0.12198 0.30884 0.71602
 H198 H 0.29855 0.23702 0.82191
 H199 H 0.33980 0.27572 0.86417
 H200 H 0.31044 0.36436 0.78866
 H201 H 0.26948 0.32431 0.74849
 C202 C 0.17419 0.17497 0.83316
 C203 C 0.32606 0.17619 0.67021
 C204 C 0.32821 0.32314 0.82959
 C205 C 0.16838 0.32117 0.67401
 C206 C 0.76512 0.69675 0.69767
 H207 H 0.73313 0.69342 0.69922
 C208 C 0.78775 0.67456 0.67361
 H209 H 0.77318 0.65391 0.65679
 C210 C 0.82321 0.72735 0.71816
 H211 H 0.83688 0.74821 0.73520
 C212 C 0.84694 0.70599 0.69403
 H213 H 0.87884 0.71017 0.69333
 N214 N 0.78315 0.72188 0.72015
 C215 C 0.68982 0.73298 0.80848
 H216 H 0.68408 0.76131 0.80725
 C217 C 0.66603 0.71117 0.83197
 H218 H 0.64220 0.72320 0.84867
 C219 C 0.72842 0.68341 0.78838
 H220 H 0.75317 0.67270 0.77194
 C221 C 0.70576 0.66073 0.81178
 H222 H 0.71307 0.63263 0.81268
 Zn223 Zn 0.74954 0.74918 0.75323
 N224 N 0.71955 0.71872 0.78639
 C225 C 0.67555 0.77094 0.71806
 N226 N 0.71569 0.77610 0.71969
 C227 C 0.73367 0.80082 0.69661
 C228 C 0.71094 0.82293 0.67231
 C229 C 0.65171 0.79222 0.69371
 C230 C 0.80996 0.76626 0.80779
 C231 C 0.83387 0.78853 0.83069
 C232 C 0.79352 0.83849 0.80981
 C233 C 0.77073 0.81541 0.78697
 N234 N 0.77980 0.78011 0.78564
 H235 H 0.66190 0.75043 0.73565
 H236 H 0.76571 0.80393 0.69792
 H237 H 0.72550 0.84330 0.65507
 H238 H 0.61975 0.78835 0.69334
 H239 H 0.81594 0.73796 0.80703
 H240 H 0.85825 0.77722 0.84750
 H241 H 0.78625 0.86659 0.81032
 H242 H 0.74573 0.82580 0.77045
 C243 C 0.67350 0.67434 0.83333
 C244 C 0.82914 0.67898 0.67184
 C245 C 0.82590 0.82515 0.83140
 C246 C 0.66948 0.81884 0.67092
 C247 C 0.76798 0.20584 0.18744
 H248 H 0.73704 0.21069 0.17999
 C249 C 0.79124 0.18385 0.16374
 H250 H 0.77821 0.17173 0.13793
 C251 C 0.82262 0.21520 0.23048
 H252 H 0.83466 0.22740 0.25658
 C253 C 0.84684 0.19311 0.20777
 H254 H 0.87743 0.18853 0.21663
 N255 N 0.78383 0.22074 0.22028
 C256 C 0.70118 0.23247 0.31701
 H257 H 0.70496 0.26026 0.32424
 C258 C 0.67814 0.21059 0.34114
 H259 H 0.66418 0.22167 0.36696
 C260 C 0.71491 0.18409 0.27455
 H261 H 0.72931 0.17376 0.24867
 C262 C 0.69193 0.16145 0.29761
 H263 H 0.68875 0.13379 0.28935
 Zn264 Zn 0.75030 0.24890 0.25223
 N265 N 0.71898 0.21893 0.28442
 C266 C 0.67804 0.28218 0.22911
 N267 N 0.71691 0.27671 0.21944
 C268 C 0.73294 0.29161 0.18672
 C269 C 0.70983 0.31366 0.16269
 C270 C 0.65396 0.30430 0.20604
 C271 C 0.79944 0.26610 0.31701
 C272 C 0.82223 0.28833 0.34103
 C273 C 0.80779 0.33711 0.29691
 C274 C 0.78506 0.31413 0.27398
 N275 N 0.78144 0.27929 0.28419
 H276 H 0.66585 0.26998 0.25512
 H277 H 0.76394 0.28682 0.17970
 H278 H 0.72304 0.32587 0.13706
 H279 H 0.62333 0.30888 0.21455
 H280 H 0.79599 0.23831 0.32455
 H281 H 0.83634 0.27753 0.36705
 H282 H 0.81058 0.36476 0.28837
 H283 H 0.77047 0.32421 0.24795
 C284 C 0.67341 0.17465 0.33135
 C285 C 0.83094 0.17694 0.17421
 C286 C 0.82649 0.32427 0.33088
 C287 C 0.67009 0.32059 0.17269
 C288 C 0.26629 0.70578 0.18737
 H289 H 0.23510 0.71095 0.18135
 C290 C 0.28800 0.68335 0.16277
 H291 H 0.27322 0.67129 0.13793
 C292 C 0.32305 0.71475 0.22775
 H293 H 0.33651 0.72695 0.25318
 C294 C 0.34580 0.69219 0.20403
 H295 H 0.37673 0.68699 0.21137
 N296 N 0.28390 0.72073 0.21931
 C297 C 0.20056 0.73409 0.31588
 H298 H 0.20341 0.76216 0.32221
 C299 C 0.17753 0.71238 0.34028
 H300 H 0.16255 0.72389 0.36532
 C301 C 0.21691 0.68476 0.27574
 H302 H 0.23246 0.67389 0.25080
 C303 C 0.19396 0.66229 0.29904
 H304 H 0.19188 0.63432 0.29176
 Zn305 Zn 0.25152 0.74957 0.25191
 N306 N 0.21964 0.72001 0.28428
 C307 C 0.17970 0.78393 0.22733
 N308 N 0.21887 0.77820 0.21902
 C309 C 0.23623 0.79322 0.18705
 C310 C 0.21426 0.81555 0.16231
 C311 C 0.15670 0.80635 0.20347
 C312 C 0.30294 0.76549 0.31565
 C313 C 0.32578 0.78740 0.34004
 C314 C 0.30867 0.83731 0.29845
 C315 C 0.28593 0.81460 0.27520
 N316 N 0.28357 0.77936 0.28395
 H317 H 0.16642 0.77164 0.25277
 H318 H 0.26743 0.78823 0.18112
 H319 H 0.22885 0.82770 0.13745
 H320 H 0.12576 0.81138 0.21072
 H321 H 0.30039 0.73740 0.32212
 H322 H 0.34085 0.77568 0.36502
 H323 H 0.31029 0.86526 0.29080
 H324 H 0.27018 0.82530 0.25015
 C325 C 0.17413 0.67603 0.33178
 C326 C 0.32814 0.67615 0.17126
 C327 C 0.32874 0.82394 0.33158
 C328 C 0.17411 0.82253 0.17069
 N329 N 1.07183 0.03688 0.04344
 N330 N 1.09919 0.06095 0.05158
 N331 N 1.04292 -0.03790 0.06933
 N332 N 1.05034 -0.06245 0.09617
 N333 N 1.07092 -0.03781 0.04250
 N334 N 1.09820 -0.06224 0.05037
 N335 N 1.04383 0.03692 0.07028
 N336 N 1.05120 0.06114 0.09728
 C337 C 1.08560 0.07604 0.08499
 C338 C 1.08463 -0.07763 0.08361
 N339 N 0.92937 -0.03565 0.04096
 N340 N 0.90204 -0.06007 0.04759
 N341 N 0.95817 0.03818 0.06942
 N342 N 0.95080 0.06221 0.09663
 N343 N 0.93051 0.03901 0.04207
 N344 N 0.90340 0.06349 0.05007
 N345 N 0.95703 -0.03658 0.06831
 N346 N 0.94935 -0.06170 0.09426
 Mn347 Mn 1.00047 0.00013 0.06971
 C348 C 0.91521 -0.07626 0.08066
 C349 C 0.91682 0.07795 0.08390
 N350 N 1.07127 -0.03695 -0.04191
 N351 N 1.09775 -0.06222 -0.04884
 N352 N 1.04490 0.03845 -0.06885
 N353 N 1.05300 0.06314 -0.09520
 N354 N 1.07223 0.03793 -0.04116
 N355 N 1.09956 0.06237 -0.04782
 N356 N 1.04387 -0.03625 -0.06952
 N357 N 1.05110 -0.06088 -0.09613
 Mn358 Mn 1.07197 0.00003 0.00069
 C359 C 1.08449 -0.07707 -0.08250
 C360 C 1.08687 0.07805 -0.08137
 N361 N 0.93116 0.04017 -0.04252
 N362 N 0.90436 0.06512 -0.04999
 N363 N 0.95782 -0.03510 -0.07031
 N364 N 0.95042 -0.05981 -0.09682
 N365 N 0.92977 -0.03460 -0.04352
 N366 N 0.90244 -0.05881 -0.05114
 N367 N 0.95880 0.03976 -0.06974
 N368 N 0.95144 0.06434 -0.09655
 Mn369 Mn 0.92981 0.00227 -0.00077
 Mn370 Mn 1.00135 0.00170 -0.07002
 Cl371 Cl 1.00090 0.00104 -0.00011
 C372 C 0.91773 0.08020 -0.08349
 C373 C 0.91599 -0.07452 -0.08418
 N374 N 1.07029 0.53568 0.54373
 N375 N 1.09755 0.55996 0.55122
 N376 N 1.04092 0.46121 0.56988
 N377 N 1.04812 0.43667 0.59674
 N378 N 1.06889 0.46104 0.54300
 N379 N 1.09601 0.43648 0.55097
 N380 N 1.04248 0.53597 0.57076
 N381 N 1.04996 0.56055 0.59734
 C382 C 1.08419 0.57540 0.58448
 C383 C 1.08229 0.42128 0.58427
 N384 N 0.92740 0.46410 0.54209
 N385 N 0.89996 0.43977 0.54870
 N386 N 0.95666 0.53773 0.57046
 N387 N 0.94945 0.56184 0.59765
 N388 N 0.92924 0.53893 0.54291
 N389 N 0.90270 0.56403 0.55051
 N390 N 0.95509 0.46301 0.56939
 N391 N 0.94729 0.43789 0.59533
 Mn392 Mn 0.99880 0.49946 0.57050
 C393 C 0.91304 0.42349 0.58176
 C394 C 0.91600 0.57825 0.58452
 N395 N 1.06916 0.46184 0.45840
 N396 N 1.09643 0.43750 0.45035
 N397 N 1.04319 0.53744 0.43163
 N398 N 1.05126 0.56221 0.40535
 N399 N 1.07062 0.53675 0.45922
 N400 N 1.09799 0.56117 0.45256
 N401 N 1.04161 0.46271 0.43092
 N402 N 1.04949 0.43907 0.40340
 Mn403 Mn 1.07014 0.49882 0.50108
 C404 C 1.08342 0.42327 0.41625
 C405 C 1.08523 0.57702 0.41911
 N406 N 0.92960 0.53977 0.45843
 N407 N 0.90302 0.56494 0.45115
 N408 N 0.95548 0.46455 0.43052
 N409 N 0.94784 0.43985 0.40410
 N410 N 0.92783 0.46492 0.45772
 N411 N 0.90075 0.44034 0.45070
 N412 N 0.95717 0.53925 0.43115
 N413 N 0.94997 0.56397 0.40446
 Mn414 Mn 0.92811 0.50196 0.50026
 Mn415 Mn 0.99935 0.50097 0.43065
 Cl416 Cl 0.99911 0.50030 0.50061
 C417 C 0.91645 0.58002 0.41769
 C418 C 0.91386 0.42480 0.41738
 N419 N 0.57024 0.03475 0.54296
 N420 N 0.59770 0.05887 0.55058
 N421 N 0.54132 -0.03942 0.56978
 N422 N 0.54861 -0.06389 0.59671
 N423 N 0.56883 -0.04008 0.54245
 N424 N 0.59550 -0.06516 0.54996
 N425 N 0.54230 0.03531 0.56985
 N426 N 0.54986 0.05987 0.59641
 C427 C 0.58429 0.07448 0.58377
 C428 C 0.58219 -0.07995 0.58366
 N429 N 0.42776 -0.03761 0.54205
 N430 N 0.40035 -0.06181 0.54928
 N431 N 0.45644 0.03665 0.56959
 N432 N 0.44904 0.06098 0.59650
 N433 N 0.42866 0.03704 0.54235
 N434 N 0.40154 0.06158 0.55003
 N435 N 0.45550 -0.03814 0.56932
 N436 N 0.44783 -0.06282 0.59579
 Mn437 Mn 0.49889 -0.00138 0.57001
 C438 C 0.41360 -0.07751 0.58260
 C439 C 0.41497 0.07650 0.58358
 N440 N 0.56883 -0.03945 0.45783
 N441 N 0.59620 -0.06365 0.44962
 N442 N 0.54244 0.03604 0.43100
 N443 N 0.55039 0.06076 0.40464
 N444 N 0.57004 0.03539 0.45844
 N445 N 0.59737 0.05977 0.45161
 N446 N 0.54120 -0.03864 0.43043
 N447 N 0.54908 -0.06218 0.40284
 Mn448 Mn 0.56990 -0.00238 0.50041
 C449 C 0.58312 -0.07787 0.41554
 C450 C 0.58444 0.07555 0.41821
 N451 N 0.42871 0.03766 0.45795
 N452 N 0.40204 0.06282 0.45089
 N453 N 0.45521 -0.03735 0.43016
 N454 N 0.44764 -0.06205 0.40371
 N455 N 0.42775 -0.03730 0.45754
 N456 N 0.40087 -0.06209 0.45059
 N457 N 0.45627 0.03743 0.43066
 N458 N 0.44895 0.06228 0.40415
 Mn459 Mn 0.42782 -0.00006 0.49995
 Mn460 Mn 0.49878 -0.00060 0.43016
 Cl461 Cl 0.49886 -0.00111 0.50012
 C462 C 0.41535 0.07814 0.41750
 C463 C 0.41393 -0.07746 0.41713
 N464 N 0.57185 0.53553 0.04234
 N465 N 0.59906 0.55987 0.04995
 N466 N 0.54338 0.46094 0.06876
 N467 N 0.55076 0.43633 0.09546
 N468 N 0.57115 0.46086 0.04168
 N469 N 0.59835 0.43630 0.04938
 N470 N 0.54403 0.53570 0.06937
 N471 N 0.55141 0.56023 0.09600
 C472 C 0.58558 0.57521 0.08327
 C473 C 0.58485 0.42101 0.08273
 N474 N 0.42980 0.46229 0.04191
 N475 N 0.40259 0.43789 0.04914
 N476 N 0.45820 0.53662 0.06975
 N477 N 0.45087 0.56082 0.09683
 N478 N 0.43025 0.53701 0.04270
 N479 N 0.40307 0.56143 0.05066
 N480 N 0.45767 0.46177 0.06904
 N481 N 0.45028 0.43694 0.09542
 Mn482 Mn 0.50085 0.49877 0.06960
 C483 C 0.41608 0.42211 0.08234
 C484 C 0.41664 0.57627 0.08422
 N485 N 0.57071 0.46161 -0.04302
 N486 N 0.59807 0.43743 -0.05139
 N487 N 0.54348 0.53726 -0.06927
 N488 N 0.55101 0.56212 -0.09560
 N489 N 0.57156 0.53638 -0.04232
 N490 N 0.59906 0.56051 -0.04972
 N491 N 0.54293 0.46243 -0.07028
 N492 N 0.55070 0.43889 -0.09793
 Mn493 Mn 0.57173 0.49857 -0.00034
 C494 C 0.58484 0.42323 -0.08543
 C495 C 0.58552 0.57659 -0.08273
 N496 N 0.43000 0.53798 -0.04170
 N497 N 0.40315 0.56302 -0.04851
 N498 N 0.45689 0.46326 -0.07003
 N499 N 0.44930 0.43871 -0.09664
 N500 N 0.42952 0.46309 -0.04256
 N501 N 0.40269 0.43829 -0.04959
 N502 N 0.45743 0.53798 -0.06911
 N503 N 0.44984 0.56289 -0.09547
 Mn504 Mn 0.42950 0.50008 0.00005
 Mn505 Mn 0.50018 0.50025 -0.07007
 Cl506 Cl 0.50057 0.49942 -0.00020
 C507 C 0.41624 0.57852 -0.08187
 C508 C 0.41568 0.42316 -0.08318
 C509 C 1.14984 0.11696 0.09844
 C510 C 1.13555 0.15542 0.10688
 C511 C 1.14683 0.15038 0.15034
 C512 C 1.16135 0.11221 0.14213
 C513 C 1.10466 0.13672 0.15967
 C514 C 1.09310 0.14143 0.11594
 C515 C 1.10776 0.10338 0.10784
 C516 C 1.11903 0.09832 0.15122
 H517 H 1.16825 0.10861 0.07304
 H518 H 1.14251 0.17921 0.08887
 H519 H 1.18960 0.10032 0.15318
 H520 H 1.08561 0.14449 0.18482
 H521 H 1.06479 0.15316 0.10482
 H522 H 1.11208 0.07451 0.16922
 C523 C 1.14810 0.59583 0.62426
 C524 C 1.16273 0.63168 0.60739
 C525 C 1.14903 0.65028 0.64529
 C526 C 1.13460 0.61466 0.66231
 C527 C 1.10758 0.65749 0.62736
 C528 C 1.12100 0.63856 0.58923
 C529 C 1.10674 0.60302 0.60638
 C530 C 1.09292 0.62153 0.64416
 H531 H 1.16450 0.57015 0.62282
 H532 H 1.19130 0.63556 0.59166
 H533 H 1.14047 0.60501 0.69258
 H534 H 1.09116 0.68316 0.62880
 H535 H 1.11507 0.64808 0.55891
 H536 H 1.06397 0.61710 0.65905
 C537 C 0.64856 0.11570 0.59610
 C538 C 0.63422 0.15424 0.60399
 C539 C 0.64582 0.14983 0.64745
 C540 C 0.66039 0.11158 0.63979
 C541 C 0.60374 0.13620 0.65729
 C542 C 0.59188 0.14028 0.61356
 C543 C 0.60659 0.10215 0.60600
 C544 C 0.61817 0.09772 0.64939
 H545 H 0.66682 0.10704 0.57072
 H546 H 0.64099 0.17780 0.58554
 H547 H 0.68875 0.09990 0.65085
 H548 H 0.58483 0.14427 0.68242
 H549 H 0.56347 0.15180 0.60244
 H550 H 0.61141 0.07415 0.66784
 C551 C 0.64957 0.61666 0.09596
 C552 C 0.63497 0.65510 0.10402
 C553 C 0.64639 0.65052 0.14750
 C554 C 0.66122 0.61238 0.13967
 C555 C 0.60436 0.63665 0.15708
 C556 C 0.59267 0.64091 0.11334
 C557 C 0.60764 0.60289 0.10562
 C558 C 0.61906 0.59829 0.14902
 H559 H 0.66798 0.60820 0.07060
 H560 H 0.64169 0.67879 0.08575
 H561 H 0.68960 0.60078 0.15079
 H562 H 0.58530 0.64451 0.18218
 H563 H 0.56423 0.65234 0.10216
 H564 H 0.61235 0.57459 0.16729
 C565 C 0.87834 -0.13964 0.08447
 C566 C 0.89171 -0.15881 0.12267
 C567 C 0.85020 -0.15182 0.14026
 C568 C 0.83653 -0.13301 0.10231
 C569 C 0.86447 -0.11627 0.15752
 C570 C 0.90620 -0.12293 0.13973
 C571 C 0.89244 -0.10419 0.10189
 C572 C 0.85101 -0.09722 0.11943
 H573 H 0.88439 -0.14893 0.05417
 H574 H 0.90821 -0.18444 0.12416
 H575 H 0.80798 -0.13689 0.08637
 H576 H 0.85850 -0.10683 0.18778
 H577 H 0.93509 -0.11854 0.15493
 H578 H 0.83453 -0.07158 0.11794
 C579 C 0.87679 0.35954 0.58549
 C580 C 0.88849 0.34093 0.62443
 C581 C 0.84838 0.34825 0.63998
 C582 C 0.83490 0.36537 0.60328
 C583 C 0.86065 0.38224 0.65753
 C584 C 0.90315 0.37681 0.64120
 C585 C 0.89022 0.39544 0.60280
 C586 C 0.84813 0.40181 0.61953
 H587 H 0.88306 0.34925 0.55563
 H588 H 0.90388 0.31482 0.62726
 H589 H 0.80657 0.36029 0.58742
 H590 H 0.85294 0.39044 0.68787
 H591 H 0.93130 0.38087 0.65778
 H592 H 0.83045 0.42682 0.61811
 C593 C 0.37591 -0.14035 0.58760
 C594 C 0.38941 -0.15934 0.62584
 C595 C 0.34820 -0.15169 0.64380
 C596 C 0.33441 -0.13303 0.60580
 C597 C 0.36320 -0.11618 0.66054
 C598 C 0.40463 -0.12350 0.64238
 C599 C 0.39075 -0.10493 0.60449
 C600 C 0.34963 -0.09730 0.62239
 H601 H 0.38148 -0.14998 0.55734
 H602 H 0.40552 -0.18516 0.62744
 H603 H 0.30564 -0.13669 0.59018
 H604 H 0.35770 -0.10642 0.69076
 H605 H 0.43376 -0.11934 0.65721
 H606 H 0.33353 -0.07146 0.62080
 C607 C 0.37959 0.35862 0.08731
 C608 C 0.39308 0.33997 0.12577
 C609 C 0.35154 0.34700 0.14331
 C610 C 0.33776 0.36532 0.10509
 C611 C 0.36566 0.38282 0.16001
 C612 C 0.40742 0.37612 0.14227
 C613 C 0.39354 0.39435 0.10417
 C614 C 0.35209 0.40136 0.12165
 H615 H 0.38563 0.34896 0.05715
 H616 H 0.40971 0.31443 0.12762
 H617 H 0.30924 0.36117 0.08919
 H618 H 0.35968 0.39262 0.19013
 H619 H 0.43630 0.38079 0.15737
 H620 H 0.33547 0.42692 0.11981
 C621 C 0.91225 0.14234 -0.12302
 C622 C 0.89131 0.13425 -0.16257
 C623 C 0.85392 0.15412 -0.14814
 C624 C 0.87456 0.16258 -0.10883
 C625 C 0.83696 0.11941 -0.13106
 C626 C 0.87452 0.09933 -0.14533
 C627 C 0.89512 0.10770 -0.10612
 C628 C 0.85781 0.12751 -0.09155
 H629 H 0.94350 0.15145 -0.11947
 H630 H 0.90493 0.13724 -0.19202
 H631 H 0.87467 0.18861 -0.09355
 H632 H 0.80576 0.11013 -0.13450
 H633 H 0.87469 0.07305 -0.16015
 H634 H 0.84421 0.12450 -0.06210
 C635 C 0.85687 0.62765 0.40989
 C636 C 0.87378 0.66260 0.39247
 C637 C 0.85292 0.65417 0.35327
 C638 C 0.83580 0.61958 0.37049
 C639 C 0.89011 0.63410 0.33872
 C640 C 0.91127 0.64215 0.37817
 C641 C 0.89398 0.60763 0.39519
 C642 C 0.87316 0.59930 0.35609
 H643 H 0.84339 0.62474 0.43941
 H644 H 0.87410 0.68866 0.40769
 H645 H 0.80452 0.61047 0.36719
 H646 H 0.90361 0.63698 0.30920
 H647 H 0.94260 0.65109 0.38157
 H648 H 0.87311 0.57300 0.34133
 C649 C 0.35574 0.12623 0.41042
 C650 C 0.37217 0.16111 0.39258
 C651 C 0.35240 0.15263 0.35508
 C652 C 0.33495 0.11962 0.37063
 C653 C 0.38776 0.13406 0.33970
 C654 C 0.41001 0.14103 0.37875
 C655 C 0.39290 0.10611 0.39543
 C656 C 0.37169 0.09861 0.35611
 H657 H 0.34157 0.12365 0.43966
 H658 H 0.37189 0.18734 0.40744
 H659 H 0.30325 0.11196 0.36650
 H660 H 0.39988 0.13844 0.30980
 H661 H 0.44111 0.15073 0.38153
 H662 H 0.37082 0.07295 0.34006
 C663 C 0.35647 0.62612 -0.08867
 C664 C 0.37314 0.66117 -0.10609
 C665 C 0.35185 0.65288 -0.14510
 C666 C 0.33496 0.61820 -0.12788
 C667 C 0.38889 0.63291 -0.16018
 C668 C 0.41048 0.64081 -0.12092
 C669 C 0.39343 0.60621 -0.10390
 C670 C 0.37218 0.59803 -0.14281
 H671 H 0.34335 0.62306 -0.05901
 H672 H 0.37359 0.68717 -0.09075
 H673 H 0.30365 0.60908 -0.13088
 H674 H 0.40204 0.63594 -0.18983
 H675 H 0.44184 0.64977 -0.11782
 H676 H 0.37199 0.57179 -0.15770
 C677 C 1.14351 -0.12531 -0.08936
 C678 C 1.12617 -0.16011 -0.10668
 C679 C 1.14726 -0.15201 -0.14574
 C680 C 1.16482 -0.11757 -0.12862
 C681 C 1.11041 -0.13156 -0.16080
 C682 C 1.08902 -0.13928 -0.12149
 C683 C 1.10674 -0.10492 -0.10457
 C684 C 1.12779 -0.09691 -0.14353
 H685 H 1.15693 -0.12247 -0.05973
 H686 H 1.12543 -0.18613 -0.09128
 H687 H 1.19624 -0.10882 -0.13170
 H688 H 1.09696 -0.13438 -0.19042
 H689 H 1.05755 -0.14786 -0.11831
 H690 H 1.12825 -0.07065 -0.15847
 C691 C 1.09586 0.38503 0.35110
 C692 C 1.13942 0.39163 0.33830
 C693 C 1.15005 0.35307 0.34994
 C694 C 1.10666 0.34625 0.36250
 C695 C 1.16090 0.36505 0.39176
 C696 C 1.15011 0.40381 0.38029
 C697 C 1.10682 0.39702 0.39281
 C698 C 1.11725 0.35860 0.40464
 H699 H 1.06883 0.39338 0.33452
 H700 H 1.14791 0.40595 0.31112
 H701 H 1.08893 0.32235 0.35492
 H702 H 1.18794 0.35667 0.40829
 H703 H 1.16783 0.42772 0.38787
 H704 H 1.10783 0.34529 0.43217
 C705 C 0.59526 -0.11539 0.35004
 C706 C 0.63866 -0.10850 0.33696
 C707 C 0.64954 -0.14713 0.34803
 C708 C 0.60631 -0.15424 0.36088
 C709 C 0.66073 -0.13557 0.38990
 C710 C 0.64969 -0.09672 0.37901
 C711 C 0.60655 -0.10380 0.39181
 C712 C 0.61722 -0.14230 0.40308
 H713 H 0.56805 -0.10697 0.33380
 H714 H 0.64685 -0.09387 0.30988
 H715 H 0.58861 -0.17812 0.35314
 H716 H 0.68796 -0.14403 0.40607
 H717 H 0.66737 -0.07282 0.38675
 H718 H 0.60811 -0.15591 0.43052
 C719 C 0.59652 0.38539 -0.15085
 C720 C 0.63988 0.39206 -0.16420
 C721 C 0.65065 0.35343 -0.15299
 C722 C 0.60745 0.34654 -0.13987
 C723 C 0.66212 0.36515 -0.11124
 C724 C 0.65118 0.40399 -0.12227
 C725 C 0.60808 0.39713 -0.10920
 C726 C 0.61864 0.35864 -0.09779
 H727 H 0.56926 0.39383 -0.16700
 H728 H 0.64798 0.40654 -0.19140
 H729 H 0.58960 0.32269 -0.14737
 H730 H 0.68938 0.35667 -0.09515
 H731 H 0.66901 0.42786 -0.11476
 H732 H 0.60963 0.34517 -0.07023
 C733 C 1.14774 0.12451 -0.08790
 C734 C 1.16795 0.11787 -0.12789
 C735 C 1.15109 0.15150 -0.14286
 C736 C 1.13194 0.16003 -0.10515
 C737 C 1.11515 0.13406 -0.15835
 C738 C 1.13057 0.09800 -0.14256
 C739 C 1.10997 0.10557 -0.10303
 C740 C 1.09350 0.14112 -0.11911
 H741 H 1.16217 0.12118 -0.05876
 H742 H 1.19941 0.10946 -0.13231
 H743 H 1.13298 0.18603 -0.08986
 H744 H 1.10280 0.13912 -0.18813
 H745 H 1.13064 0.07253 -0.15899
 H746 H 1.06266 0.15159 -0.11605
 C747 C 1.09128 0.63963 0.38088
 C748 C 1.12878 0.65942 0.39602
 C749 C 1.14982 0.65142 0.35689
 C750 C 1.11262 0.63198 0.34153
 C751 C 1.16669 0.61636 0.37362
 C752 C 1.14542 0.62400 0.41295
 C753 C 1.10829 0.60463 0.39744
 C754 C 1.12930 0.59671 0.35841
 H755 H 1.05998 0.64889 0.38408
 H756 H 1.12848 0.68524 0.41175
 H757 H 1.09927 0.63548 0.31193
 H758 H 1.19794 0.60693 0.37051
 H759 H 1.15873 0.62047 0.44256
 H760 H 1.12933 0.57066 0.34312
 C761 C 0.64522 0.12161 0.41171
 C762 C 0.66556 0.11434 0.37184
 C763 C 0.64906 0.14993 0.35620
 C764 C 0.62893 0.15756 0.39588
 C765 C 0.61120 0.13136 0.34111
 C766 C 0.62751 0.09555 0.35691
 C767 C 0.60743 0.10310 0.39649
 C768 C 0.59078 0.13862 0.38103
 H769 H 0.65903 0.11734 0.44099
 H770 H 0.69657 0.10452 0.36792
 H771 H 0.62942 0.18306 0.41221
 H772 H 0.59737 0.13562 0.31184
 H773 H 0.62672 0.06978 0.34108
 H774 H 0.55972 0.14828 0.38503
 C775 C 0.64751 0.59616 -0.12655
 C776 C 0.63226 0.61823 -0.16184
 C777 C 0.64928 0.65052 -0.14415
 C778 C 0.66543 0.63093 -0.11021
 C779 C 0.61185 0.65946 -0.12374
 C780 C 0.59252 0.62535 -0.14043
 C781 C 0.60825 0.60419 -0.10472
 C782 C 0.62647 0.63837 -0.08736
 H783 H 0.66320 0.57016 -0.12839
 H784 H 0.63546 0.61107 -0.19328
 H785 H 0.69624 0.63439 -0.09881
 H786 H 0.59720 0.68597 -0.12303
 H787 H 0.56237 0.62373 -0.15385
 H788 H 0.62467 0.64754 -0.05648
 C789 C 0.85401 -0.09423 -0.12763
 C790 C 0.86928 -0.11563 -0.16330
 C791 C 0.85139 -0.14964 -0.14538
 C792 C 0.83596 -0.12846 -0.10992
 C793 C 0.89089 -0.15771 -0.12384
 C794 C 0.90896 -0.12335 -0.14154
 C795 C 0.89340 -0.10226 -0.10614
 C796 C 0.87568 -0.13618 -0.08810
 H797 H 0.83906 -0.06785 -0.12902
 H798 H 0.86649 -0.10733 -0.19446
 H799 H 0.80571 -0.13078 -0.09706
 H800 H 0.90639 -0.18381 -0.12215
 H801 H 0.93922 -0.12101 -0.15437
 H802 H 0.87856 -0.14434 -0.05690
 C803 C 0.85382 0.37803 0.41085
 C804 C 0.83341 0.38486 0.37076
 C805 C 0.85047 0.34938 0.35562
 C806 C 0.87067 0.34220 0.39552
 C807 C 0.88806 0.36834 0.34060
 C808 C 0.87119 0.40404 0.35590
 C809 C 0.89134 0.39692 0.39570
 C810 C 0.90855 0.36152 0.38074
 H811 H 0.83992 0.38227 0.43998
 H812 H 0.80227 0.39428 0.36652
 H813 H 0.87055 0.31678 0.41211
 H814 H 0.90198 0.36410 0.31147
 H815 H 0.87161 0.42973 0.33981
 H816 H 0.93974 0.35226 0.38506
 C817 C 0.37016 -0.09811 0.35600
 C818 C 0.38658 -0.13362 0.33990
 C819 C 0.35146 -0.15217 0.35551
 C820 C 0.33367 -0.11911 0.37079
 C821 C 0.37138 -0.16047 0.39306
 C822 C 0.40897 -0.14041 0.37898
 C823 C 0.39152 -0.10543 0.39536
 C824 C 0.35462 -0.12552 0.41061
 H825 H 0.36898 -0.07253 0.33971
 H826 H 0.39870 -0.13812 0.31002
 H827 H 0.30188 -0.11150 0.36664
 H828 H 0.37141 -0.18663 0.40819
 H829 H 0.44018 -0.15007 0.38179
 H830 H 0.34046 -0.12283 0.43985
 C831 C 0.37214 0.40297 -0.14429
 C832 C 0.38929 0.36783 -0.16081
 C833 C 0.35235 0.34805 -0.14554
 C834 C 0.33501 0.38297 -0.12918
 C835 C 0.37348 0.34035 -0.10622
 C836 C 0.41071 0.36050 -0.12125
 C837 C 0.39322 0.39534 -0.10507
 C838 C 0.35635 0.37562 -0.08967
 H839 H 0.37178 0.42899 -0.15975
 H840 H 0.40268 0.36439 -0.19030
 H841 H 0.30364 0.39205 -0.13257
 H842 H 0.37413 0.31459 -0.09027
 H843 H 0.44213 0.35158 -0.11776
 H844 H 0.34297 0.37907 -0.06018
 C845 C 1.09371 -0.12320 0.14421
 C846 C 1.10905 -0.15928 0.12815
 C847 C 1.15029 -0.15169 0.14620
 C848 C 1.13518 -0.11595 0.16248
 C849 C 1.16389 -0.13342 0.10804
 C850 C 1.12238 -0.14069 0.08975
 C851 C 1.10744 -0.10503 0.10616
 C852 C 1.14859 -0.09747 0.12417
 H853 H 1.06461 -0.11878 0.15888
 H854 H 1.09300 -0.18500 0.12995
 H855 H 1.14071 -0.10593 0.19261
 H856 H 1.19261 -0.13730 0.09251
 H857 H 1.11679 -0.15060 0.05959
 H858 H 1.16462 -0.07174 0.12238
 C859 C 1.11592 0.39913 0.65054
 C860 C 1.10177 0.36084 0.65947
 C861 C 1.14400 0.34698 0.65019
 C862 C 1.15828 0.38506 0.64151
 C863 C 1.13264 0.34173 0.60683
 C864 C 1.09012 0.35591 0.61582
 C865 C 1.10456 0.39386 0.60725
 C866 C 1.14669 0.38009 0.59791
 H867 H 1.10888 0.42306 0.66830
 H868 H 1.08283 0.35327 0.68475
 H869 H 1.18649 0.39693 0.65235
 H870 H 1.13969 0.31780 0.58908
 H871 H 1.06185 0.34420 0.60491
 H872 H 1.16498 0.38824 0.57237
 C873 C 0.59441 -0.11925 0.64829
 C874 C 0.60017 -0.15866 0.63636
 C875 C 0.64477 -0.15579 0.64681
 C876 C 0.63920 -0.11668 0.65894
 C877 C 0.65463 -0.14441 0.60453
 C878 C 0.60979 -0.14690 0.59378
 C879 C 0.60435 -0.10789 0.60610
 C880 C 0.64884 -0.10503 0.61652
 H881 H 0.56946 -0.10865 0.66619
 H882 H 0.57989 -0.18077 0.64430
 H883 H 0.65148 -0.10442 0.68598
 H884 H 0.67958 -0.15502 0.58664
 H885 H 0.59745 -0.15902 0.56670
 H886 H 0.66868 -0.08271 0.60816
 C887 C 0.59236 0.35567 0.11414
 C888 C 0.63476 0.34119 0.10524
 C889 C 0.64609 0.34646 0.14861
 C890 C 0.60396 0.36062 0.15778
 C891 C 0.66072 0.38441 0.13986
 C892 C 0.64915 0.37945 0.09624
 C893 C 0.60713 0.39350 0.10551
 C894 C 0.61846 0.39878 0.14880
 H895 H 0.56401 0.34414 0.10320
 H896 H 0.64164 0.31717 0.08757
 H897 H 0.58487 0.35327 0.18302
 H898 H 0.68901 0.39610 0.15073
 H899 H 0.66754 0.38744 0.07070
 H900 H 0.61161 0.42279 0.16649
 C901 C 0.88291 0.09909 0.15007
 C902 C 0.89728 0.13714 0.15978
 C903 C 0.85520 0.15139 0.15024
 C904 C 0.84070 0.11355 0.14078
 C905 C 0.86683 0.15733 0.10710
 C906 C 0.90919 0.14276 0.11636
 C907 C 0.89454 0.10505 0.10701
 C908 C 0.85256 0.11920 0.09739
 H909 H 0.88969 0.07482 0.16750
 H910 H 0.91615 0.14415 0.18539
 H911 H 0.81234 0.10166 0.15110
 H912 H 0.86003 0.18159 0.08968
 H913 H 0.93760 0.15448 0.10596
 H914 H 0.83435 0.11159 0.07151
 C915 C 0.84954 0.60313 0.61737
 C916 C 0.85937 0.61452 0.65984
 C917 C 0.85377 0.65370 0.64780
 C918 C 0.84372 0.64258 0.60547
 C919 C 0.89833 0.65662 0.63746
 C920 C 0.90412 0.61713 0.64930
 C921 C 0.89399 0.60603 0.60706
 C922 C 0.88852 0.64512 0.59484
 H923 H 0.82966 0.58087 0.60891
 H924 H 0.84720 0.60211 0.68682
 H925 H 0.81870 0.65330 0.58757
 H926 H 0.91868 0.67866 0.64549
 H927 H 0.92915 0.60642 0.66721
 H928 H 0.90074 0.65739 0.56781
 C929 C 0.35106 0.09638 0.62364
 C930 C 0.36453 0.11459 0.66209
 C931 C 0.34965 0.15047 0.64577
 C932 C 0.33598 0.13249 0.60747
 C933 C 0.39096 0.15798 0.62805
 C934 C 0.40606 0.12175 0.64415
 C935 C 0.39227 0.10386 0.60597
 C936 C 0.37756 0.13967 0.58951
 H937 H 0.33489 0.07072 0.62167
 H938 H 0.35890 0.10443 0.69215
 H939 H 0.30729 0.13662 0.59178
 H940 H 0.40714 0.18362 0.63002
 H941 H 0.43513 0.11711 0.65902
 H942 H 0.38325 0.14970 0.55941
 C943 C 0.35287 0.59625 0.12457
 C944 C 0.36648 0.61437 0.16304
 C945 C 0.35170 0.65033 0.14683
 C946 C 0.33788 0.63243 0.10851
 C947 C 0.39299 0.65773 0.12902
 C948 C 0.40800 0.62143 0.14501
 C949 C 0.39407 0.60363 0.10681
 C950 C 0.37945 0.63952 0.09048
 H951 H 0.33658 0.57066 0.12260
 H952 H 0.36090 0.60417 0.19310
 H953 H 0.30919 0.63664 0.09285
 H954 H 0.40929 0.68331 0.13101
 H955 H 0.43708 0.61668 0.15981
 H956 H 0.38509 0.64960 0.06039
   
