data_POSCAR
  _audit_creation_date              2014-09-24
  _audit_creation_method            'ToBaCCo'
  _symmetry_space_group_name_H-M    'P1'
  _symmetry_Int_Tables_number       1
  _symmetry_cell_setting            triclinic
  loop_
  _symmetry_equiv_pos_as_xyz
 x,y,z
_cell_length_a 28.8852
_cell_length_b 32.6768
_cell_length_c 7.5581
_cell_angle_alpha 89.246600
_cell_angle_beta 89.586000
_cell_angle_gamma 90.146000
loop_
  _atom_site_label
  _atom_site_type_symbol
  _atom_site_fract_x
  _atom_site_fract_y
  _atom_site_fract_z
O1 O 0.21409 0.28868 0.04005
 O2 O 0.29766 0.20905 0.16357
 O3 O 0.21247 0.20916 0.05908
 O4 O 0.29888 0.28901 0.15532
 O5 O 0.27732 0.29012 0.43581
 O6 O 0.18935 0.21265 0.33701
 O7 O 0.27510 0.21059 0.44304
 O8 O 0.19329 0.29242 0.32077
 Cu9 Cu 0.25850 0.24884 0.07741
 Cu10 Cu 0.23101 0.25157 0.41132
 C11 C 0.18957 0.30447 0.16115
 C12 C 0.30054 0.19585 0.32165
 C13 C 0.18577 0.19729 0.18423
 C14 C 0.30301 0.30317 0.31025
 O15 O 0.79834 0.28918 0.33103
 O16 O 0.71091 0.21080 0.44295
 O17 O 0.79596 0.20922 0.32958
 O18 O 0.71322 0.29042 0.44365
 O19 O 0.69225 0.29231 0.16346
 O20 O 0.77500 0.21142 0.04952
 O21 O 0.68993 0.21199 0.16321
 O22 O 0.77758 0.29018 0.05044
 Cu23 Cu 0.75724 0.24975 0.41389
 Cu24 Cu 0.73070 0.25167 0.07987
 C25 C 0.80330 0.30283 0.17397
 C26 C 0.68543 0.19767 0.31953
 C27 C 0.79991 0.19656 0.17214
 C28 C 0.68866 0.30546 0.32022
 O29 O 0.77620 0.78987 0.97161
 O30 O 0.69091 0.70995 0.87158
 O31 O 0.77575 0.71038 0.98122
 O32 O 0.69070 0.78953 0.86277
 O33 O 0.71278 0.78951 0.58278
 O34 O 0.79745 0.70969 0.70116
 O35 O 0.71230 0.70973 0.59085
 O36 O 0.79763 0.78987 0.69083
 Cu37 Cu 0.73071 0.75007 0.94886
 Cu38 Cu 0.75783 0.74955 0.61420
 C39 C 0.80150 0.80368 0.84613
 C40 C 0.68686 0.69612 0.71638
 C41 C 0.80126 0.69622 0.85893
 C42 C 0.68701 0.80317 0.70541
 O43 O 0.29677 0.79310 0.83234
 O44 O 0.21098 0.71647 0.97934
 O45 O 0.29669 0.71346 0.86695
 O46 O 0.21167 0.79543 0.93874
 O47 O 0.19005 0.78907 0.66132
 O48 O 0.27513 0.70739 0.58908
 O49 O 0.19043 0.70976 0.70069
 O50 O 0.27620 0.78668 0.55360
 Cu51 Cu 0.25672 0.75516 0.93136
 Cu52 Cu 0.23036 0.74768 0.59914
 C53 C 0.30120 0.80323 0.67061
 C54 C 0.18588 0.69993 0.86281
 C55 C 0.30049 0.69635 0.71752
 C56 C 0.18605 0.80627 0.81045
 C57 C 0.95284 -0.08397 -0.06062
 C58 C 0.99494 -0.10427 -0.08207
 C59 C 1.03708 -0.08321 -0.07405
 C60 C 1.03739 -0.04068 -0.04089
 C61 C 0.99480 -0.01962 -0.02209
 C62 C 0.95236 -0.04131 -0.03281
 C63 C 0.91051 -0.01981 -0.01595
 C64 C 0.91032 0.02223 0.01011
 C65 C 0.95198 0.04431 0.02250
 C66 C 0.99462 0.02326 0.00620
 C67 C 1.07902 -0.01850 -0.02919
 C68 C 1.07885 0.02332 0.00357
 C69 C 1.03704 0.04491 0.02046
 C70 C 1.03638 0.08738 0.05505
 C71 C 0.99401 0.10780 0.06853
 C72 C 0.95208 0.08691 0.05166
 H73 H 0.87743 -0.03530 -0.02323
 H74 H 0.87709 0.03725 0.02122
 H75 H 1.11226 -0.03325 -0.04426
 H76 H 1.11197 0.03853 0.01462
 H77 H 0.99490 -0.13687 -0.10750
 H78 H 0.99367 0.14031 0.09597
 C79 C 0.53480 0.58515 0.59798
 C80 C 0.49226 0.60491 0.61694
 C81 C 0.45043 0.58379 0.59950
 C82 C 0.45084 0.54173 0.55698
 C83 C 0.49380 0.52125 0.53774
 C84 C 0.53594 0.54299 0.55876
 C85 C 0.57809 0.52188 0.54315
 C86 C 0.57891 0.48030 0.50638
 C87 C 0.53760 0.45818 0.48465
 C88 C 0.49467 0.47876 0.50061
 C89 C 0.40957 0.51938 0.53699
 C90 C 0.41045 0.47797 0.49620
 C91 C 0.45262 0.45697 0.47856
 C92 C 0.45395 0.41480 0.43827
 C93 C 0.49656 0.39486 0.42500
 C94 C 0.53814 0.41598 0.44688
 H95 H 0.61095 0.53724 0.56014
 H96 H 0.61234 0.46559 0.49575
 H97 H 0.37607 0.53364 0.55244
 H98 H 0.37762 0.46251 0.47986
 H99 H 0.49160 0.63727 0.64664
 H100 H 0.49747 0.36244 0.39638
 C101 C -0.04413 0.41393 0.03914
 C102 C -0.00121 0.39424 0.03658
 C103 C 0.04010 0.41646 0.03630
 C104 C 0.03890 0.45967 0.03382
 C105 C -0.00436 0.48009 0.03046
 C106 C -0.04610 0.45716 0.03299
 C107 C -0.08858 0.47801 0.02750
 C108 C -0.08999 0.52065 0.01828
 C109 C -0.04897 0.54399 0.01724
 C110 C -0.00581 0.52351 0.02526
 C111 C 0.07987 0.48294 0.03340
 C112 C 0.07843 0.52543 0.02968
 C113 C 0.03598 0.54634 0.02344
 C114 C 0.03436 0.58953 0.01410
 C115 C -0.00835 0.60941 0.00770
 C116 C -0.04984 0.58724 0.00517
 H117 H -0.12110 0.46145 0.02745
 H118 H -0.12358 0.53519 0.01243
 H119 H 0.11355 0.46851 0.03492
 H120 H 0.11108 0.54174 0.03133
 H121 H 0.00007 0.36108 0.04478
 H122 H -0.00921 0.64250 -0.00493
 C123 C 0.53599 1.08677 0.45209
 C124 C 0.49355 1.10718 0.44414
 C125 C 0.45172 1.08570 0.45238
 C126 C 0.45190 1.04262 0.47042
 C127 C 0.49463 1.02159 0.48331
 C128 C 0.53688 1.04374 0.47556
 C129 C 0.57884 1.02222 0.48921
 C130 C 0.57924 0.97986 0.51270
 C131 C 0.53775 0.95725 0.51865
 C132 C 0.49509 0.97828 0.50189
 C133 C 0.41041 1.02007 0.47476
 C134 C 0.41086 0.97766 0.49172
 C135 C 0.45279 0.95619 0.50712
 C136 C 0.45343 0.91318 0.52889
 C137 C 0.49561 0.89284 0.54772
 C138 C 0.53762 0.91428 0.54514
 H139 H 0.61181 1.03800 0.48374
 H140 H 0.61251 0.96502 0.52528
 H141 H 0.37711 1.03502 0.46503
 H142 H 0.37788 0.96186 0.49297
 H143 H 0.49305 1.14014 0.42577
 H144 H 0.49566 0.86002 0.57149
 C145 C 1.14756 0.14764 -0.00758
 C146 C 1.15252 0.16673 0.15651
 C147 C 1.12281 0.15339 0.29547
 C148 C 1.08640 0.12588 0.26394
 C149 C 1.07890 0.11079 0.09321
 C150 C 1.11162 0.12035 -0.03818
 C151 C 1.10505 0.13539 -0.22302
 C152 C 1.14426 0.16550 -0.19007
 H153 H 1.12585 0.16595 0.42654
 H154 H 1.06258 0.11813 0.37068
 H155 H 1.07093 0.15038 -0.24301
 H156 H 1.11410 0.11166 -0.32132
 H157 H 1.13284 0.19798 -0.19054
 H158 H 1.17574 0.15930 -0.27075
 C159 C 0.62697 0.64646 0.82566
 C160 C 0.65242 0.66364 0.68467
 C161 C 0.64367 0.64857 0.51382
 C162 C 0.60635 0.62147 0.48553
 C163 C 0.57740 0.60909 0.62742
 C164 C 0.59050 0.61991 0.79801
 C165 C 0.56330 0.63633 0.94998
 C166 C 0.60334 0.66573 0.97979
 H167 H 0.66385 0.65937 0.40128
 H168 H 0.59865 0.61186 0.35248
 H169 H 0.55892 0.61327 1.05823
 H170 H 0.53102 0.65217 0.90958
 H171 H 0.62197 0.65980 1.10543
 H172 H 0.59420 0.69831 0.95411
 C173 C -0.13645 0.33366 -0.02706
 C174 C -0.15949 0.33265 0.13656
 C175 C -0.14214 0.35754 0.27207
 C176 C -0.10557 0.38507 0.23826
 C177 C -0.08539 0.38803 0.06865
 C178 C -0.09975 0.36039 -0.05956
 C179 C -0.11503 0.36876 -0.24458
 C180 C -0.15517 0.33954 -0.20905
 H181 H -0.15757 0.35640 0.40292
 H182 H -0.09310 0.40412 0.34410
 H183 H -0.08983 0.35711 -0.34361
 H184 H -0.12603 0.40103 -0.26606
 H185 H -0.15301 0.31113 -0.28788
 H186 H -0.18952 0.35482 -0.20984
 C187 C 0.35000 0.86350 0.74651
 C188 C 0.33536 0.83505 0.62144
 C189 C 0.35518 0.83780 0.45030
 C190 C 0.39295 0.86441 0.41631
 C191 C 0.41041 0.88925 0.55156
 C192 C 0.38622 0.89020 0.71175
 C193 C 0.40343 0.88776 0.89711
 C194 C 0.36371 0.85826 0.93581
 H195 H 0.34388 0.81745 0.34716
 H196 H 0.40997 0.86405 0.28831
 H197 H 0.39985 0.91737 0.96659
 H198 H 0.43814 0.87328 0.90685
 H199 H 0.33740 0.87086 1.02814
 H200 H 0.37555 0.82670 0.96816
 C201 C -0.13958 0.64837 -0.23967
 C202 C -0.16648 0.66531 -0.10396
 C203 C -0.15968 0.64952 0.06942
 C204 C -0.12299 0.62216 0.10529
 C205 C -0.09287 0.60996 -0.03135
 C206 C -0.10395 0.62136 -0.20451
 C207 C -0.07455 0.63812 -0.35185
 C208 C -0.11358 0.66807 -0.38993
 H209 H -0.18078 0.65997 0.17884
 H210 H -0.11658 0.61238 0.24027
 H211 H -0.06929 0.61551 -0.45870
 H212 H -0.04250 0.65330 -0.30523
 H213 H -0.13064 0.66292 -0.51900
 H214 H -0.10415 0.70043 -0.36343
 C215 C 0.34889 1.15447 0.53368
 C216 C 0.33360 1.16273 0.36137
 C217 C 0.35225 1.13895 0.22350
 C218 C 0.38933 1.11214 0.25530
 C219 C 0.40852 1.10876 0.42517
 C220 C 0.38582 1.12822 0.56457
 C221 C 0.40459 1.15420 0.70817
 C222 C 0.36412 1.18293 0.67502
 H223 H 0.33995 1.14271 0.08930
 H224 H 0.40485 1.09603 0.14554
 H225 H 0.43874 1.16804 0.67375
 H226 H 0.40288 1.13850 0.83934
 H227 H 0.37476 1.21346 0.62185
 H228 H 0.33916 1.18360 0.78743
 C229 C 1.14801 -0.14224 -0.00649
 C230 C 1.15341 -0.16250 -0.16793
 C231 C 1.12439 -0.15007 -0.30867
 C232 C 1.08790 -0.12244 -0.28020
 C233 C 1.07984 -0.10633 -0.11116
 C234 C 1.11213 -0.11484 0.02096
 C235 C 1.10502 -0.12857 0.20793
 C236 C 1.14424 -0.15878 0.17837
 H237 H 1.12789 -0.16351 -0.43811
 H238 H 1.06440 -0.11549 -0.38747
 H239 H 1.07082 -0.14352 0.23053
 H240 H 1.11388 -0.10415 0.30303
 H241 H 1.13276 -0.19129 0.18363
 H242 H 1.17554 -0.15188 0.25746
 C243 C 0.64114 0.34768 0.52911
 C244 C 0.65580 0.33881 0.35672
 C245 C 0.63693 0.36228 0.21673
 C246 C 0.60013 0.38940 0.24776
 C247 C 0.58165 0.39349 0.41906
 C248 C 0.60462 0.37431 0.55937
 C249 C 0.58586 0.34880 0.70844
 C250 C 0.62591 0.31962 0.67607
 H251 H 0.64878 0.35803 0.08204
 H252 H 0.58423 0.40515 0.13689
 H253 H 0.55145 0.33527 0.67890
 H254 H 0.58804 0.36474 0.83699
 H255 H 0.61476 0.28911 0.62845
 H256 H 0.65114 0.31890 0.78629
 C257 C 0.85054 -0.13752 -0.25842
 C258 C 0.83541 -0.16357 -0.12095
 C259 C 0.85424 -0.15746 0.04851
 C260 C 0.89162 -0.13014 0.07084
 C261 C 0.90981 -0.10798 -0.07488
 C262 C 0.88652 -0.11012 -0.23543
 C263 C 0.90463 -0.11593 -0.41853
 C264 C 0.86513 -0.14614 -0.44424
 H265 H 0.84253 -0.17586 0.16038
 H266 H 0.90800 -0.12808 0.19866
 H267 H 0.93940 -0.13046 -0.42116
 H268 H 0.90132 -0.08771 -0.50116
 H269 H 0.87714 -0.17814 -0.46208
 H270 H 0.83916 -0.13529 -0.54187
 C271 C 0.36349 0.35272 0.20346
 C272 C 0.33752 0.33554 0.34290
 C273 C 0.34528 0.35086 0.51415
 C274 C 0.38209 0.37829 0.54483
 C275 C 0.41155 0.39086 0.40499
 C276 C 0.39954 0.37965 0.23347
 C277 C 0.42774 0.36315 0.08422
 C278 C 0.38819 0.33335 0.05209
 H279 H 0.32466 0.34006 0.62556
 H280 H 0.38904 0.38799 0.67841
 H281 H 0.45995 0.34766 0.12782
 H282 H 0.43246 0.38602 -0.02464
 H283 H 0.39749 0.30090 0.07976
 H284 H 0.37023 0.33888 -0.07535
 C285 C 0.13639 0.63996 -0.21049
 C286 C 0.15145 0.66847 -0.08658
 C287 C 0.13204 0.66601 0.08535
 C288 C 0.09441 0.63941 0.12172
 C289 C 0.07671 0.61426 -0.01187
 C290 C 0.10030 0.61330 -0.17343
 C291 C 0.08228 0.61574 -0.35765
 C292 C 0.12186 0.64522 -0.39882
 H293 H 0.14366 0.68646 0.18755
 H294 H 0.07783 0.63984 0.25051
 H295 H 0.04754 0.63024 -0.36517
 H296 H 0.08554 0.58612 -0.42732
 H297 H 0.10993 0.67680 -0.43032
 H298 H 0.14777 0.63262 -0.49281
 C299 C 0.62649 1.15036 0.21564
 C300 C 0.65258 1.16685 0.35351
 C301 C 0.64468 1.15037 0.52544
 C302 C 0.60777 1.12274 0.55794
 C303 C 0.57850 1.11091 0.41927
 C304 C 0.59065 1.12312 0.24745
 C305 C 0.56240 1.14010 0.09916
 C306 C 0.60175 1.17027 0.06451
 H307 H 0.66519 1.16038 0.63628
 H308 H 0.60067 1.11230 0.69192
 H309 H 0.53003 1.15514 0.14422
 H310 H 0.55792 1.11771 -0.00885
 H311 H 0.59215 1.20254 0.09157
 H312 H 0.61978 1.16538 -0.06376
 C313 C 0.14269 0.36539 0.24607
 C314 C 0.15675 0.33744 0.11758
 C315 C 0.13774 0.34174 -0.05323
 C316 C 0.10093 0.36919 -0.08392
 C317 C 0.08375 0.39352 0.05409
 C318 C 0.10738 0.39299 0.21452
 C319 C 0.08942 0.38963 0.39963
 C320 C 0.12814 0.35917 0.43467
 H321 H 0.14868 0.32178 -0.15880
 H322 H 0.08410 0.36963 -0.21138
 H323 H 0.05427 0.37572 0.40763
 H324 H 0.09359 0.41868 0.47276
 H325 H 0.11529 0.32764 0.46326
 H326 H 0.15449 0.37069 0.52836
 C327 C 0.64916 0.85460 0.50142
 C328 C 0.65267 0.83556 0.66811
 C329 C 0.62222 0.84884 0.80244
 C330 C 0.58621 0.87634 0.76406
 C331 C 0.57999 0.89136 0.59069
 C332 C 0.61362 0.88191 0.46383
 C333 C 0.60824 0.86670 0.28032
 C334 C 0.64697 0.83659 0.32104
 H335 H 0.62437 0.83606 0.93475
 H336 H 0.56163 0.88400 0.86732
 H337 H 0.61813 0.89033 0.17983
 H338 H 0.57416 0.85172 0.25882
 H339 H 0.67901 0.84269 0.24258
 H340 H 0.63527 0.80413 0.32363
 C341 C 0.84982 0.13780 0.26615
 C342 C 0.83373 0.16418 0.13263
 C343 C 0.85200 0.15915 -0.03949
 C344 C 0.88970 0.13263 -0.06841
 C345 C 0.90882 0.11017 0.07325
 C346 C 0.88615 0.11116 0.23668
 C347 C 0.90495 0.11657 0.41809
 C348 C 0.86509 0.14595 0.45078
 H349 H 0.83961 0.17786 -0.14853
 H350 H 0.90561 0.13145 -0.19820
 H351 H 0.93948 0.13169 0.41765
 H352 H 0.90246 0.08799 0.49902
 H353 H 0.87666 0.17808 0.46954
 H354 H 0.83974 0.13428 0.55069
 C355 C 0.33944 0.64286 0.53313
 C356 C 0.33441 0.66307 0.69455
 C357 C 0.36313 0.65045 0.83524
 C358 C 0.39930 0.62249 0.80677
 C359 C 0.40727 0.60635 0.63747
 C360 C 0.37508 0.61523 0.50528
 C361 C 0.38232 0.62914 0.31857
 C362 C 0.34334 0.65958 0.34865
 H363 H 0.35961 0.66408 0.96423
 H364 H 0.42278 0.61544 0.91401
 H365 H 0.37328 0.60490 0.22290
 H366 H 0.41665 0.64389 0.29638
 H367 H 0.31200 0.65296 0.26937
 H368 H 0.35508 0.69202 0.34400
   
