data_POSCAR
  _audit_creation_date              2014-09-24
  _audit_creation_method            'ToBaCCo'
  _symmetry_space_group_name_H-M    'P1'
  _symmetry_Int_Tables_number       1
  _symmetry_cell_setting            triclinic
  loop_
  _symmetry_equiv_pos_as_xyz
 x,y,z
_cell_length_a 66.5154
_cell_length_b 66.3108
_cell_length_c 66.3841
_cell_angle_alpha 89.928800
_cell_angle_beta 89.999100
_cell_angle_gamma 90.066300
loop_
  _atom_site_label
  _atom_site_type_symbol
  _atom_site_fract_x
  _atom_site_fract_y
  _atom_site_fract_z
N1 N 0.60152 0.65752 0.61781
 N2 N 0.59259 0.64823 0.63288
 C3 C 0.57580 0.65845 0.63787
 C4 C 0.57440 0.67513 0.62546
 C5 C 0.59095 0.67413 0.61296
 H6 H 0.56553 0.65431 0.64982
 H7 H 0.59478 0.68450 0.60097
 Cu8 Cu 0.60434 0.62407 0.64468
 Cu9 Cu 0.62557 0.64686 0.60483
 Cu10 Cu 0.64610 0.60336 0.62542
 N11 N 0.61609 0.59990 0.65647
 N12 N 0.63295 0.59243 0.64932
 C13 C 0.63850 0.57652 0.66063
 C14 C 0.62417 0.57367 0.67546
 C15 C 0.61008 0.58869 0.67233
 H16 H 0.65181 0.56753 0.65810
 H17 H 0.59672 0.59144 0.68118
 N18 N 0.65717 0.61674 0.60129
 N19 N 0.64974 0.63364 0.59384
 C20 C 0.66086 0.63929 0.57783
 C21 C 0.67581 0.62516 0.57498
 C22 C 0.67304 0.61105 0.59003
 H23 H 0.65816 0.65252 0.56869
 H24 H 0.68207 0.59775 0.59265
 H25 H 0.62101 0.61697 0.61281
 H26 H 0.63687 0.63260 0.62993
 N27 N 0.89850 0.34135 0.11772
 N28 N 0.90754 0.35073 0.13264
 C29 C 0.92439 0.34059 0.13758
 C30 C 0.92573 0.32382 0.12528
 C31 C 0.90903 0.32472 0.11291
 H32 H 0.93474 0.34486 0.14941
 H33 H 0.90510 0.31432 0.10101
 Cu34 Cu 0.89577 0.37477 0.14452
 Cu35 Cu 0.87446 0.35201 0.10474
 Cu36 Cu 0.85415 0.39569 0.12507
 N37 N 0.88401 0.39890 0.15625
 N38 N 0.86739 0.40666 0.14884
 C39 C 0.86198 0.42269 0.16000
 C40 C 0.87606 0.42521 0.17506
 C41 C 0.88989 0.40992 0.17225
 H42 H 0.84888 0.43193 0.15728
 H43 H 0.90303 0.40695 0.18139
 N44 N 0.84297 0.38224 0.10109
 N45 N 0.85032 0.36527 0.09374
 C46 C 0.83915 0.35960 0.07779
 C47 C 0.82425 0.37378 0.07489
 C48 C 0.82709 0.38793 0.08985
 H49 H 0.84180 0.34634 0.06871
 H50 H 0.81812 0.40127 0.09240
 H51 H 0.87915 0.38190 0.11256
 H52 H 0.86320 0.36640 0.12976
 N53 N 0.39804 0.15783 -0.11763
 N54 N 0.40693 0.14858 -0.13270
 C55 C 0.42376 0.15876 -0.13769
 C56 C 0.42522 0.17539 -0.12526
 C57 C 0.40867 0.17440 -0.11276
 H58 H 0.43403 0.15464 -0.14962
 H59 H 0.40488 0.18476 -0.10077
 Cu60 Cu 0.39513 0.12450 -0.14450
 Cu61 Cu 0.37398 0.14718 -0.10466
 Cu62 Cu 0.35350 0.10356 -0.12506
 N63 N 0.38333 0.10041 -0.15629
 N64 N 0.36672 0.09261 -0.14885
 C65 C 0.36131 0.07656 -0.15999
 C66 C 0.37539 0.07407 -0.17506
 C67 C 0.38921 0.08939 -0.17227
 H68 H 0.34821 0.06727 -0.15726
 H69 H 0.40236 0.09238 -0.18139
 N70 N 0.34237 0.11700 -0.10106
 N71 N 0.34979 0.13394 -0.09368
 C72 C 0.33863 0.13963 -0.07775
 C73 C 0.32366 0.12550 -0.07488
 C74 C 0.32646 0.11134 -0.08984
 H75 H 0.34133 0.15289 -0.06867
 H76 H 0.31742 0.09803 -0.09241
 H77 H 0.37857 0.11731 -0.11257
 H78 H 0.36263 0.13286 -0.12970
 N79 N 0.10140 0.84141 0.38201
 N80 N 0.09205 0.85111 0.36749
 C81 C 0.07507 0.84108 0.36273
 C82 C 0.07403 0.82395 0.37461
 C83 C 0.09102 0.82458 0.38660
 H84 H 0.06451 0.84559 0.35119
 H85 H 0.09521 0.81389 0.39817
 Cu86 Cu 0.10390 0.87513 0.35547
 Cu87 Cu 0.12541 0.85218 0.39503
 Cu88 Cu 0.14563 0.89605 0.37484
 N89 N 0.11572 0.89928 0.34372
 N90 N 0.13238 0.90701 0.35108
 C91 C 0.13784 0.92303 0.33989
 C92 C 0.12375 0.92555 0.32483
 C93 C 0.10988 0.91029 0.32768
 H94 H 0.15096 0.93229 0.34258
 H95 H 0.09675 0.90730 0.31855
 N96 N 0.15680 0.88258 0.39881
 N97 N 0.14948 0.86555 0.40614
 C98 C 0.16065 0.85991 0.42211
 C99 C 0.17552 0.87416 0.42503
 C100 C 0.17265 0.88832 0.41007
 H101 H 0.15803 0.84662 0.43119
 H102 H 0.18160 0.90171 0.40750
 H103 H 0.12066 0.88219 0.38732
 H104 H 0.13656 0.86684 0.37002
 N105 N 0.10115 0.15826 0.11767
 N106 N 0.09214 0.14887 0.13262
 C107 C 0.07530 0.15900 0.13756
 C108 C 0.07397 0.17576 0.12526
 C109 C 0.09061 0.17490 0.11287
 H110 H 0.06496 0.15477 0.14942
 H111 H 0.09448 0.18536 0.10097
 Cu112 Cu 0.10391 0.12479 0.14444
 Cu113 Cu 0.12519 0.14763 0.10469
 Cu114 Cu 0.14552 0.10392 0.12505
 N115 N 0.11567 0.10070 0.15626
 N116 N 0.13228 0.09295 0.14883
 C117 C 0.13770 0.07691 0.16000
 C118 C 0.12364 0.07438 0.17507
 C119 C 0.10980 0.08965 0.17227
 H120 H 0.15081 0.06766 0.15728
 H121 H 0.09668 0.09261 0.18141
 N122 N 0.15668 0.11740 0.10106
 N123 N 0.14933 0.13437 0.09369
 C124 C 0.16051 0.14005 0.07773
 C125 C 0.17540 0.12587 0.07486
 C126 C 0.17255 0.11171 0.08983
 H127 H 0.15787 0.15332 0.06863
 H128 H 0.18151 0.09836 0.09241
 H129 H 0.12051 0.11771 0.11255
 H130 H 0.13646 0.13319 0.12974
 N131 N 0.39819 0.84180 0.61763
 N132 N 0.40709 0.85106 0.63271
 C133 C 0.42388 0.84085 0.63773
 C134 C 0.42534 0.82421 0.62531
 C135 C 0.40880 0.82523 0.61278
 H136 H 0.43413 0.84497 0.64970
 H137 H 0.40501 0.81489 0.60078
 Cu138 Cu 0.39530 0.87510 0.64460
 Cu139 Cu 0.37415 0.85249 0.60465
 Cu140 Cu 0.35373 0.89609 0.62505
 N141 N 0.38352 0.89923 0.65632
 N142 N 0.36692 0.90702 0.64887
 C143 C 0.36152 0.92305 0.66002
 C144 C 0.37556 0.92555 0.67512
 C145 C 0.38937 0.91024 0.67234
 H146 H 0.34844 0.93233 0.65726
 H147 H 0.40248 0.90725 0.68150
 N148 N 0.34260 0.88268 0.60102
 N149 N 0.34999 0.86575 0.59363
 C150 C 0.33882 0.86010 0.57767
 C151 C 0.32388 0.87425 0.57480
 C152 C 0.32671 0.88837 0.58979
 H153 H 0.34149 0.84686 0.56857
 H154 H 0.31770 0.90168 0.59239
 H155 H 0.37877 0.88238 0.61261
 H156 H 0.36278 0.86681 0.62970
 N157 N 0.89842 0.65776 0.38220
 N158 N 0.90732 0.64852 0.36712
 C159 C 0.92414 0.65875 0.36212
 C160 C 0.92559 0.67540 0.37453
 C161 C 0.90903 0.67436 0.38704
 H162 H 0.93441 0.65463 0.35018
 H163 H 0.90522 0.68471 0.39902
 Cu164 Cu 0.89558 0.62437 0.35530
 Cu165 Cu 0.87436 0.64701 0.39516
 Cu166 Cu 0.85395 0.60334 0.37481
 N167 N 0.88375 0.60024 0.34356
 N168 N 0.86717 0.59241 0.35102
 C169 C 0.86178 0.57634 0.33989
 C170 C 0.87585 0.57385 0.32481
 C171 C 0.88964 0.58920 0.32758
 H172 H 0.84870 0.56704 0.34265
 H173 H 0.90277 0.59220 0.31843
 N174 N 0.84279 0.61677 0.39882
 N175 N 0.85018 0.63373 0.40619
 C176 C 0.83900 0.63939 0.42213
 C177 C 0.82405 0.62522 0.42501
 C178 C 0.82689 0.61108 0.41004
 H179 H 0.84166 0.65266 0.43120
 H180 H 0.81788 0.59774 0.40746
 H181 H 0.87897 0.61709 0.38724
 H182 H 0.86300 0.63260 0.37011
 N183 N 0.60166 0.34187 -0.11758
 N184 N 0.59271 0.35116 -0.13263
 C185 C 0.57591 0.34094 -0.13758
 C186 C 0.57451 0.32427 -0.12516
 C187 C 0.59108 0.32527 -0.11270
 H188 H 0.56565 0.34502 -0.14955
 H189 H 0.59493 0.31487 -0.10075
 Cu190 Cu 0.60454 0.37507 -0.14486
 Cu191 Cu 0.62574 0.35249 -0.10473
 Cu192 Cu 0.64615 0.39605 -0.12515
 N193 N 0.61632 0.39940 -0.15631
 N194 N 0.63295 0.40714 -0.14889
 C195 C 0.63841 0.42319 -0.16006
 C196 C 0.62433 0.42575 -0.17514
 C197 C 0.61048 0.41046 -0.17232
 H198 H 0.65155 0.43241 -0.15736
 H199 H 0.59738 0.40746 -0.18149
 N200 N 0.65734 0.38259 -0.10118
 N201 N 0.64993 0.36564 -0.09379
 C202 C 0.66107 0.35994 -0.07784
 C203 C 0.67603 0.37408 -0.07496
 C204 C 0.67324 0.38825 -0.08994
 H205 H 0.65836 0.34668 -0.06873
 H206 H 0.68226 0.40158 -0.09252
 H207 H 0.62096 0.38223 -0.11290
 H208 H 0.63700 0.36667 -0.12996
 C209 C -0.03046 0.28025 0.12535
 N210 N -0.02822 0.29724 0.13651
 N211 N -0.04250 0.31133 0.13662
 C212 C -0.05936 0.30908 0.12530
 N213 N -0.06147 0.29215 0.11400
 N214 N -0.04736 0.27792 0.11415
 C215 C -0.01490 0.26462 0.12540
 N216 N -0.01985 0.24500 0.12233
 N217 N -0.00574 0.23076 0.12251
 C218 C 0.01386 0.23569 0.12542
 N219 N 0.01882 0.25534 0.12831
 N220 N 0.00467 0.26954 0.12848
 C221 C 0.02943 0.22008 0.12538
 N222 N 0.04843 0.22454 0.11940
 N223 N 0.06258 0.21035 0.11922
 C224 C 0.05831 0.19129 0.12534
 N225 N 0.03935 0.18685 0.13148
 N226 N 0.02510 0.20097 0.13134
 C227 C 0.52987 0.71957 0.62542
 N228 N 0.52594 0.70089 0.63285
 N229 N 0.54017 0.68675 0.63302
 C230 C 0.55873 0.69071 0.62549
 N231 N 0.56261 0.70934 0.61792
 N232 N 0.54848 0.72356 0.61802
 C233 C 0.51429 0.73523 0.62541
 N234 N 0.51943 0.75505 0.62532
 N235 N 0.50530 0.76928 0.62546
 C236 C 0.48552 0.76420 0.62539
 N237 N 0.48039 0.74437 0.62531
 N238 N 0.49452 0.73014 0.62547
 C239 C 0.46994 0.77984 0.62536
 N240 N 0.45134 0.77584 0.61795
 N241 N 0.43719 0.79004 0.61781
 C242 C 0.44103 0.80866 0.62536
 N243 N 0.45959 0.81264 0.63291
 N244 N 0.47383 0.79852 0.63278
 C245 C 1.03015 0.78028 0.37448
 N246 N 1.02739 0.79786 0.36436
 N247 N 1.04169 0.81196 0.36423
 C248 C 1.05910 0.80917 0.37456
 N249 N 1.06173 0.79165 0.38485
 N250 N 1.04761 0.77739 0.38465
 C251 C 1.01457 0.76461 0.37440
 N252 N 1.01970 0.74480 0.37499
 N253 N 1.00556 0.73054 0.37481
 C254 C 0.98579 0.73559 0.37440
 N255 N 0.98067 0.75541 0.37400
 N256 N 0.99481 0.76966 0.37383
 C257 C 0.97019 0.71991 0.37444
 N258 N 0.95158 0.72388 0.38180
 N259 N 0.93743 0.70964 0.38195
 C260 C 0.94129 0.69100 0.37446
 N261 N 0.95986 0.68705 0.36697
 N262 N 0.97411 0.70121 0.36709
 C263 C 0.46987 0.21973 -0.12535
 N264 N 0.45129 0.22375 -0.11794
 N265 N 0.43711 0.20955 -0.11779
 C266 C 0.44092 0.19093 -0.12532
 N267 N 0.45946 0.18693 -0.13286
 N268 N 0.47373 0.20105 -0.13274
 C269 C 0.48548 0.23534 -0.12537
 N270 N 0.50523 0.23021 -0.12543
 N271 N 0.51941 0.24442 -0.12526
 C272 C 0.51434 0.26424 -0.12533
 N273 N 0.49459 0.26936 -0.12542
 N274 N 0.48041 0.25516 -0.12528
 C275 C 0.52994 0.27985 -0.12529
 N276 N 0.52606 0.29855 -0.13268
 N277 N 0.54031 0.31268 -0.13278
 C278 C 0.55885 0.30870 -0.12523
 N279 N 0.56268 0.29006 -0.11770
 N280 N 0.54853 0.27583 -0.11787
 C281 C 0.12365 -0.03004 0.28013
 N282 N 0.10679 -0.04093 0.28401
 N283 N 0.10684 -0.05518 0.29818
 C284 C 0.12369 -0.05888 0.30910
 N285 N 0.14051 -0.04792 0.30529
 N286 N 0.14053 -0.03382 0.29098
 C287 C 0.12364 -0.01442 0.26447
 N288 N 0.14121 -0.00700 0.25715
 N289 N 0.14120 0.00712 0.24286
 C290 C 0.12362 0.01447 0.23553
 N291 N 0.10605 0.00713 0.24293
 N292 N 0.10606 -0.00714 0.25707
 C293 C 0.12360 0.03007 0.21986
 N294 N 0.10673 0.04088 0.21595
 N295 N 0.10675 0.05510 0.20174
 C296 C 0.12359 0.05884 0.19081
 N297 N 0.14043 0.04795 0.19465
 N298 N 0.14047 0.03389 0.20899
 C299 C 0.62405 0.53005 -0.28052
 N300 N 0.64023 0.53249 -0.29274
 N301 N 0.64019 0.54653 -0.30711
 C302 C 0.62409 0.55887 -0.30961
 N303 N 0.60796 0.55651 -0.29727
 N304 N 0.60788 0.54227 -0.28309
 C305 C 0.62407 0.51447 -0.26479
 N306 N 0.60652 0.50744 -0.25704
 N307 N 0.60656 0.49318 -0.24288
 C308 C 0.62415 0.48561 -0.23578
 N309 N 0.64170 0.49274 -0.24345
 N310 N 0.64166 0.50682 -0.25779
 C311 C 0.62420 0.47002 -0.22005
 N312 N 0.64111 0.46623 -0.20924
 N313 N 0.64111 0.45219 -0.19486
 C314 C 0.62428 0.44129 -0.19093
 N315 N 0.60740 0.44499 -0.20182
 N316 N 0.60734 0.45918 -0.21605
 C317 C 0.37557 1.02980 0.78018
 N318 N 0.35868 1.03355 0.79101
 N319 N 0.35867 1.04759 0.80535
 C320 C 0.37549 1.05853 0.80922
 N321 N 0.39236 1.05486 0.79832
 N322 N 0.39243 1.04067 0.78413
 C323 C 0.37560 1.01424 0.76450
 N324 N 0.39319 1.00695 0.75713
 N325 N 0.39320 0.99272 0.74298
 C326 C 0.37563 0.98541 0.73555
 N327 N 0.35805 0.99277 0.74284
 N328 N 0.35803 1.00685 0.75714
 C329 C 0.37564 0.96984 0.71986
 N330 N 0.35878 0.96606 0.70898
 N331 N 0.35881 0.95201 0.69466
 C332 C 0.37563 0.94109 0.69084
 N333 N 0.39246 0.94478 0.70180
 N334 N 0.39250 0.95898 0.71598
 C335 C 0.87611 0.46948 0.21983
 N336 N 0.89299 0.45866 0.21592
 N337 N 0.89296 0.44447 0.20173
 C338 C 0.87612 0.44074 0.19080
 N339 N 0.85928 0.45162 0.19464
 N340 N 0.85924 0.46566 0.20897
 C341 C 0.87609 0.48506 0.23551
 N342 N 0.85850 0.49239 0.24282
 N343 N 0.85848 0.50649 0.25711
 C344 C 0.87604 0.51391 0.26444
 N345 N 0.89363 0.50665 0.25705
 N346 N 0.89366 0.49241 0.24291
 C347 C 0.87601 0.52950 0.28011
 N348 N 0.89286 0.54040 0.28401
 N349 N 0.89279 0.55462 0.29818
 C350 C 0.87594 0.55828 0.30910
 N351 N 0.85913 0.54731 0.30527
 N352 N 0.85913 0.53325 0.29096
 C353 C 0.27944 0.12550 -0.03017
 N354 N 0.28329 0.10854 -0.04093
 N355 N 0.29732 0.10856 -0.05525
 C356 C 0.30813 0.12549 -0.05919
 N357 N 0.30435 0.14242 -0.04836
 N358 N 0.29018 0.14245 -0.03418
 C359 C 0.26390 0.12553 -0.01449
 N360 N 0.25669 0.14317 -0.00711
 N361 N 0.24251 0.14321 0.00706
 C362 C 0.23517 0.12560 0.01449
 N363 N 0.24246 0.10795 0.00719
 N364 N 0.25650 0.10791 -0.00713
 C365 C 0.21963 0.12566 0.03017
 N366 N 0.21566 0.10872 0.04097
 N367 N 0.20162 0.10882 0.05528
 C368 C 0.19092 0.12579 0.05916
 N369 N 0.19482 0.14270 0.04829
 N370 N 0.20900 0.14266 0.03411
 C371 C 0.71999 0.62508 0.53017
 N372 N 0.71609 0.60814 0.54099
 N373 N 0.70208 0.60819 0.55534
 C374 C 0.69133 0.62513 0.55924
 N375 N 0.69515 0.64204 0.54835
 N376 N 0.70930 0.64205 0.53414
 C377 C 0.73552 0.62508 0.51445
 N378 N 0.74279 0.64271 0.50700
 N379 N 0.75696 0.64272 0.49281
 C380 C 0.76422 0.62509 0.48542
 N381 N 0.75688 0.60746 0.49279
 N382 N 0.74285 0.60745 0.50713
 C383 C 0.77977 0.62511 0.46972
 N384 N 0.78368 0.60816 0.45896
 N385 N 0.79772 0.60822 0.44464
 C386 C 0.80849 0.62518 0.44070
 N387 N 0.80465 0.64210 0.45153
 N388 N 0.79047 0.64209 0.46571
 C389 C 0.78004 0.37393 0.03016
 N390 N 0.78398 0.39087 0.04093
 N391 N 0.79800 0.39079 0.05525
 C392 C 0.80873 0.37383 0.05918
 N393 N 0.80487 0.35692 0.04834
 N394 N 0.79070 0.35694 0.03415
 C395 C 0.76450 0.37396 0.01447
 N396 N 0.75720 0.35635 0.00706
 N397 N 0.74301 0.35638 -0.00711
 C398 C 0.73577 0.37402 -0.01452
 N399 N 0.74315 0.39164 -0.00718
 N400 N 0.75719 0.39161 0.00713
 C401 C 0.72023 0.37405 -0.03021
 N402 N 0.71637 0.39102 -0.04098
 N403 N 0.70234 0.39100 -0.05532
 C404 C 0.69155 0.37407 -0.05924
 N405 N 0.69534 0.35713 -0.04840
 N406 N 0.70950 0.35709 -0.03420
 C407 C 0.21983 0.87437 0.46968
 N408 N 0.20916 0.85737 0.46573
 N409 N 0.19496 0.85733 0.45157
 C410 C 0.19107 0.87424 0.44072
 N411 N 0.20181 0.89122 0.44460
 N412 N 0.21587 0.89132 0.45890
 C413 C 0.23540 0.87441 0.48535
 N414 N 0.24273 0.89205 0.49270
 N415 N 0.25677 0.89206 0.50702
 C416 C 0.26412 0.87443 0.51436
 N417 N 0.25687 0.85680 0.50694
 N418 N 0.24269 0.85679 0.49277
 C419 C 0.27966 0.87441 0.53006
 N420 N 0.29035 0.85743 0.53403
 N421 N 0.30451 0.85742 0.54822
 C422 C 0.30835 0.87431 0.55909
 N423 N 0.29759 0.89126 0.55519
 N424 N 0.28357 0.89134 0.54086
   
