data_POSCAR
  _audit_creation_date              2014-09-24
  _audit_creation_method            'ToBaCCo'
  _symmetry_space_group_name_H-M    'P1'
  _symmetry_Int_Tables_number       1
  _symmetry_cell_setting            triclinic
  loop_
  _symmetry_equiv_pos_as_xyz
 x,y,z
_cell_length_a 36.2244
_cell_length_b 36.9520
_cell_length_c 36.2245
_cell_angle_alpha 90.075100
_cell_angle_beta 89.857200
_cell_angle_gamma 90.074300
loop_
  _atom_site_label
  _atom_site_type_symbol
  _atom_site_fract_x
  _atom_site_fract_y
  _atom_site_fract_z
C1 C 1.25047 0.24974 0.25046
 C2 C 0.75012 -0.25093 0.25059
 C3 C 0.75025 0.24964 -0.24975
 C4 C 1.25060 -0.25094 -0.24989
 C5 C 0.24983 0.25085 0.74964
 C6 C 0.74941 0.75030 0.74941
 C7 C 0.74964 0.25084 0.24983
 C8 C 0.24986 0.75034 0.24987
 N9 N 1.06604 0.03729 0.04035
 N10 N 1.09202 0.06117 0.04818
 N11 N 1.04026 -0.03878 0.06594
 N12 N 1.04838 -0.06226 0.09218
 N13 N 1.06595 -0.03878 0.04025
 N14 N 1.09218 -0.06226 0.04837
 N15 N 1.04035 0.03729 0.06603
 N16 N 1.04819 0.06117 0.09201
 C17 C 1.08011 0.07617 0.08010
 C18 C 1.08045 -0.07708 0.08045
 N19 N 0.93484 -0.03851 0.04025
 N20 N 0.90881 -0.06237 0.04805
 N21 N 0.96063 0.03742 0.06613
 N22 N 0.95273 0.06120 0.09223
 N23 N 0.93503 0.03753 0.04048
 N24 N 0.90907 0.06137 0.04847
 N25 N 0.96048 -0.03862 0.06587
 N26 N 0.95255 -0.06255 0.09175
 Mn27 Mn 1.00042 -0.00068 0.06629
 C28 C 0.92063 -0.07748 0.07985
 C29 C 0.92088 0.07626 0.08044
 N30 N 1.06587 -0.03862 -0.03953
 N31 N 1.09176 -0.06255 -0.04746
 N32 N 1.04049 0.03752 -0.06498
 N33 N 1.04848 0.06137 -0.09093
 N34 N 1.06614 0.03742 -0.03938
 N35 N 1.09224 0.06120 -0.04727
 N36 N 1.04026 -0.03852 -0.06516
 N37 N 1.04806 -0.06238 -0.09120
 Mn38 Mn 1.06630 -0.00068 0.00041
 C39 C 1.07986 -0.07748 -0.07937
 C40 C 1.08044 0.07626 -0.07912
 N41 N 0.93504 0.03768 -0.03928
 N42 N 0.90892 0.06130 -0.04728
 N43 N 0.96054 -0.03839 -0.06515
 N44 N 0.95251 -0.06203 -0.09131
 N45 N 0.93486 -0.03839 -0.03947
 N46 N 0.90869 -0.06203 -0.04749
 N47 N 0.96073 0.03768 -0.06497
 N48 N 0.95273 0.06130 -0.09109
 Mn49 Mn 0.93465 -0.00042 0.00051
 Mn50 Mn 1.00052 -0.00043 -0.06536
 Cl51 Cl 1.00047 -0.00055 0.00046
 C52 C 0.92073 0.07619 -0.07928
 C53 C 0.92049 -0.07692 -0.07952
 N54 N 1.03896 0.53931 0.56521
 N55 N 1.06306 0.54705 0.59134
 N56 N 0.96179 0.56468 0.53929
 N57 N 0.93781 0.59044 0.54720
 N58 N 0.96146 0.53959 0.56496
 N59 N 0.93726 0.54763 0.59101
 N60 N 1.03927 0.56438 0.53953
 N61 N 1.06357 0.58984 0.54749
 C62 C 1.07854 0.57824 0.57946
 C63 C 0.92236 0.57902 0.57911
 N64 N 0.96233 0.53956 0.43401
 N65 N 0.93820 0.54738 0.40798
 N66 N 1.03981 0.56455 0.45990
 N67 N 1.06353 0.59050 0.45167
 N68 N 1.03986 0.53946 0.43416
 N69 N 1.06363 0.54773 0.40775
 N70 N 0.96229 0.56465 0.45974
 N71 N 0.93814 0.59020 0.45192
 Mn72 Mn 1.00079 0.56485 0.49962
 C73 C 0.92299 0.57865 0.41997
 C74 C 1.07860 0.57923 0.41949
 N75 N 0.96107 0.46145 0.56497
 N76 N 0.93714 0.45332 0.59126
 N77 N 1.03863 0.43615 0.53950
 N78 N 1.06251 0.41040 0.54754
 N79 N 1.03860 0.46124 0.56523
 N80 N 1.06245 0.45320 0.59147
 N81 N 0.96112 0.43635 0.53924
 N82 N 0.93723 0.41053 0.54733
 Mn83 Mn 1.00002 0.50041 0.56541
 C84 C 0.92208 0.42190 0.57943
 C85 C 1.07753 0.42182 0.57961
 N86 N 1.03946 0.46130 0.43427
 N87 N 1.06377 0.45333 0.40831
 N88 N 0.96166 0.43643 0.45962
 N89 N 0.93749 0.41086 0.45158
 N90 N 0.96196 0.46148 0.43392
 N91 N 0.93800 0.45360 0.40769
 N92 N 1.03914 0.43622 0.45995
 N93 N 1.06322 0.41054 0.45216
 Mn94 Mn 1.00091 0.50044 0.43377
 Mn95 Mn 1.00013 0.43600 0.49957
 Cl96 Cl 1.00047 0.50043 0.49959
 C97 C 1.07873 0.42201 0.42030
 C98 C 0.92258 0.42235 0.41952
 N99 N 0.56489 0.03828 0.53920
 N100 N 0.59106 0.06190 0.54723
 N101 N 0.53947 -0.03775 0.56514
 N102 N 0.54743 -0.06137 0.59125
 N103 N 0.56515 -0.03775 0.53946
 N104 N 0.59126 -0.06137 0.54742
 N105 N 0.53920 0.03828 0.56488
 N106 N 0.54724 0.06190 0.59105
 C107 C 0.57925 0.07680 0.57925
 C108 C 0.57942 -0.07623 0.57941
 N109 N 0.43422 -0.03846 0.53953
 N110 N 0.40839 -0.06246 0.54748
 N111 N 0.45950 0.03784 0.56489
 N112 N 0.45150 0.06174 0.59081
 N113 N 0.43386 0.03754 0.53929
 N114 N 0.40773 0.06124 0.54714
 N115 N 0.45983 -0.03816 0.56516
 N116 N 0.45210 -0.06195 0.59121
 Mn117 Mn 0.49949 0.00006 0.56532
 C118 C 0.42034 -0.07723 0.57939
 C119 C 0.41952 0.07646 0.57896
 N120 N 0.56517 -0.03816 0.45983
 N121 N 0.59122 -0.06195 0.45210
 N122 N 0.53930 0.03754 0.43386
 N123 N 0.54715 0.06124 0.40773
 N124 N 0.56489 0.03784 0.45950
 N125 N 0.59082 0.06174 0.45149
 N126 N 0.53954 -0.03846 0.43421
 N127 N 0.54749 -0.06246 0.40838
 Mn128 Mn 0.56533 0.00006 0.49949
 C129 C 0.57940 -0.07722 0.42033
 C130 C 0.57896 0.07646 0.41952
 N131 N 0.43397 0.03711 0.45964
 N132 N 0.40802 0.06093 0.45185
 N133 N 0.45982 -0.03891 0.43413
 N134 N 0.45169 -0.06243 0.40787
 N135 N 0.43414 -0.03891 0.45981
 N136 N 0.40788 -0.06243 0.45168
 N137 N 0.45965 0.03711 0.43397
 N138 N 0.45186 0.06093 0.40801
 Mn139 Mn 0.43374 -0.00068 0.49958
 Mn140 Mn 0.49959 -0.00068 0.43373
 Cl141 Cl 0.49954 -0.00032 0.49953
 C142 C 0.41996 0.07589 0.41996
 C143 C 0.41961 -0.07727 0.41960
 N144 N 0.56496 0.53958 -0.03853
 N145 N 0.59101 0.54763 -0.06274
 N146 N 0.53953 0.56438 0.03927
 N147 N 0.54749 0.58983 0.06358
 N148 N 0.56521 0.53930 0.03896
 N149 N 0.59135 0.54705 0.06306
 N150 N 0.53930 0.56468 -0.03821
 N151 N 0.54720 0.59044 -0.06219
 C152 C 0.57912 0.57902 -0.07764
 C153 C 0.57946 0.57823 0.07855
 N154 N 0.43416 0.53946 0.03986
 N155 N 0.40775 0.54773 0.06363
 N156 N 0.45974 0.56465 -0.03771
 N157 N 0.45192 0.59020 -0.06186
 N158 N 0.43402 0.53956 -0.03767
 N159 N 0.40798 0.54738 -0.06180
 N160 N 0.45990 0.56455 0.03981
 N161 N 0.45167 0.59050 0.06353
 Mn162 Mn 0.49963 0.56485 0.00080
 C163 C 0.41949 0.57923 0.07860
 C164 C 0.41997 0.57865 -0.07702
 N165 N 0.56523 0.46124 0.03860
 N166 N 0.59147 0.45320 0.06245
 N167 N 0.53924 0.43635 -0.03888
 N168 N 0.54733 0.41053 -0.06277
 N169 N 0.56498 0.46144 -0.03893
 N170 N 0.59126 0.45331 -0.06286
 N171 N 0.53950 0.43614 0.03864
 N172 N 0.54754 0.41040 0.06251
 Mn173 Mn 0.56541 0.50040 0.00002
 C174 C 0.57961 0.42182 0.07753
 C175 C 0.57943 0.42189 -0.07792
 N176 N 0.43392 0.46148 -0.03804
 N177 N 0.40769 0.45360 -0.06200
 N178 N 0.45995 0.43622 0.03914
 N179 N 0.45216 0.41054 0.06322
 N180 N 0.43427 0.46130 0.03946
 N181 N 0.40831 0.45333 0.06377
 N182 N 0.45963 0.43642 -0.03834
 N183 N 0.45158 0.41086 -0.06251
 Mn184 Mn 0.43377 0.50044 0.00091
 Mn185 Mn 0.49957 0.43600 0.00013
 Cl186 Cl 0.49959 0.50043 0.00047
 C187 C 0.41953 0.42235 -0.07742
 C188 C 0.42030 0.42201 0.07873
 C189 C 1.18424 0.18570 0.18423
 C190 C 1.14270 0.19149 0.19032
 C191 C 1.12108 0.16999 0.16870
 C192 C 1.14312 0.14483 0.14311
 C193 C 1.16883 0.12362 0.16883
 C194 C 1.19043 0.14510 0.19043
 C195 C 1.19034 0.19148 0.14270
 C196 C 1.16871 0.16998 0.12107
 C197 C 1.20759 0.20864 0.20759
 C198 C 1.22692 0.22726 0.22692
 C199 C 1.12003 0.12135 0.12002
 C200 C 1.10151 0.10122 0.10150
 H201 H 1.13129 0.21078 0.20987
 H202 H 1.09113 0.17086 0.16971
 H203 H 1.16997 0.09428 0.16997
 H204 H 1.21007 0.13417 0.21007
 H205 H 1.20989 0.21078 0.13128
 H206 H 1.16973 0.17086 0.09113
 C207 C 1.18653 0.68318 0.68400
 C208 C 1.14492 0.68827 0.68991
 C209 C 1.12383 0.66634 0.66829
 C210 C 1.14643 0.64149 0.64288
 C211 C 1.17236 0.62075 0.66873
 C212 C 1.19347 0.64269 0.69038
 C213 C 1.19274 0.68896 0.64249
 C214 C 1.17163 0.66701 0.62084
 C215 C 1.20910 0.70676 0.70732
 C216 C 1.22771 0.72602 0.72662
 C217 C 1.12339 0.61812 0.61976
 C218 C 1.10350 0.59950 0.60112
 H219 H 1.13305 0.70740 0.70936
 H220 H 1.09387 0.66669 0.66921
 H221 H 1.17403 0.59144 0.66991
 H222 H 1.21323 0.63219 0.71013
 H223 H 1.21202 0.70853 0.63112
 H224 H 1.17282 0.66776 0.59090
 C225 C 0.68426 0.18495 0.68426
 C226 C 0.64275 0.19092 0.69035
 C227 C 0.62101 0.16964 0.66861
 C228 C 0.64290 0.14449 0.64290
 C229 C 0.66850 0.12302 0.66852
 C230 C 0.69023 0.14428 0.69024
 C231 C 0.69039 0.19089 0.64274
 C232 C 0.66864 0.16962 0.62100
 C233 C 0.70770 0.20778 0.70770
 C234 C 0.72697 0.22658 0.72696
 C235 C 0.61963 0.12128 0.61963
 C236 C 0.60092 0.10146 0.60092
 H237 H 0.63144 0.21017 0.71001
 H238 H 0.59107 0.17067 0.66963
 H239 H 0.66947 0.09367 0.66951
 H240 H 0.70980 0.13316 0.70983
 H241 H 0.71005 0.21013 0.63143
 H242 H 0.66968 0.17063 0.59106
 C243 C 0.68401 0.68318 0.18652
 C244 C 0.64250 0.68949 0.19217
 C245 C 0.62085 0.66755 0.17106
 C246 C 0.64288 0.64149 0.14643
 C247 C 0.66818 0.62076 0.17292
 C248 C 0.68983 0.64271 0.19402
 C249 C 0.69047 0.68772 0.14493
 C250 C 0.66884 0.66579 0.12384
 C251 C 0.70733 0.70676 0.20909
 C252 C 0.72663 0.72602 0.22770
 C253 C 0.61976 0.61812 0.12339
 C254 C 0.60112 0.59950 0.10350
 H255 H 0.63113 0.70941 0.21107
 H256 H 0.59091 0.66864 0.17188
 H257 H 0.66899 0.59146 0.17494
 H258 H 0.70922 0.63222 0.21415
 H259 H 0.71029 0.70649 0.13307
 H260 H 0.67013 0.66578 0.09389
 C261 C 0.81631 -0.18690 0.18414
 C262 C 0.80988 -0.19239 0.14263
 C263 C 0.83152 -0.17091 0.12094
 C264 C 0.85745 -0.14608 0.14290
 C265 C 0.87948 -0.17155 0.16799
 C266 C 0.85784 -0.19302 0.18969
 C267 C 0.81047 -0.14629 0.19077
 C268 C 0.83208 -0.12484 0.16910
 C269 C 0.79295 -0.20982 0.20757
 C270 C 0.77364 -0.22844 0.22697
 C271 C 0.88057 -0.12263 0.11974
 C272 C 0.89914 -0.10252 0.10121
 H273 H 0.79010 -0.21147 0.13128
 H274 H 0.83029 -0.17160 0.09100
 H275 H 0.90942 -0.17265 0.16864
 H276 H 0.86924 -0.21252 0.20893
 H277 H 0.79105 -0.13534 0.21074
 H278 H 0.83118 -0.09551 0.17052
 C279 C 0.81465 0.31575 0.68414
 C280 C 0.80853 0.31010 0.64261
 C281 C 0.82959 0.33219 0.62100
 C282 C 0.85469 0.35776 0.64305
 C283 C 0.87733 0.33289 0.66825
 C284 C 0.85629 0.31081 0.68984
 C285 C 0.80758 0.35621 0.69075
 C286 C 0.82864 0.37830 0.66914
 C287 C 0.79204 0.29200 0.70746
 C288 C 0.77334 0.27268 0.72674
 C289 C 0.87767 0.38136 0.61992
 C290 C 0.89740 0.40024 0.60122
 H291 H 0.78934 0.29049 0.63118
 H292 H 0.82844 0.33152 0.59106
 H293 H 0.90729 0.33264 0.66906
 H294 H 0.86820 0.29167 0.70913
 H295 H 0.78776 0.36659 0.71064
 H296 H 0.82687 0.40760 0.67051
 C297 C 0.31636 -0.18615 0.68423
 C298 C 0.35789 -0.19187 0.69020
 C299 C 0.37951 -0.17047 0.66842
 C300 C 0.35745 -0.14550 0.64286
 C301 C 0.33169 -0.12416 0.66860
 C302 C 0.31009 -0.14554 0.69035
 C303 C 0.31031 -0.19218 0.64274
 C304 C 0.33193 -0.17079 0.62097
 C305 C 0.29307 -0.20904 0.70766
 C306 C 0.27386 -0.22787 0.72690
 C307 C 0.38052 -0.12217 0.61961
 C308 C 0.39901 -0.10217 0.60094
 H309 H 0.36930 -0.21104 0.70977
 H310 H 0.40946 -0.17131 0.66933
 H311 H 0.33053 -0.09482 0.66964
 H312 H 0.29042 -0.13453 0.71003
 H313 H 0.29079 -0.21156 0.63147
 H314 H 0.33095 -0.17183 0.59104
 C315 C 0.31647 0.31587 0.18641
 C316 C 0.35801 0.31030 0.19237
 C317 C 0.37953 0.33248 0.17133
 C318 C 0.35734 0.35800 0.14644
 C319 C 0.33136 0.37846 0.17266
 C320 C 0.30985 0.35629 0.19370
 C321 C 0.31059 0.31096 0.14478
 C322 C 0.33209 0.33312 0.12376
 C323 C 0.29327 0.29209 0.20892
 C324 C 0.27400 0.27274 0.22752
 C325 C 0.38030 0.38164 0.12348
 C326 C 0.39881 0.40048 0.10364
 H327 H 0.36951 0.29070 0.21144
 H328 H 0.40947 0.33190 0.17237
 H329 H 0.33000 0.40776 0.17456
 H330 H 0.29003 0.36657 0.21364
 H331 H 0.29126 0.29177 0.13287
 H332 H 0.33117 0.33292 0.09381
 C333 C 0.81639 0.18536 -0.18362
 C334 C 0.81033 0.19113 -0.14205
 C335 C 0.83192 0.16965 -0.12046
 C336 C 0.85748 0.14449 -0.14253
 C337 C 0.87955 0.16967 -0.16807
 C338 C 0.85795 0.19115 -0.18966
 C339 C 0.81015 0.14473 -0.18987
 C340 C 0.83172 0.12327 -0.16830
 C341 C 0.79305 0.20835 -0.20696
 C342 C 0.77375 0.22704 -0.22625
 C343 C 0.88061 0.12103 -0.11940
 C344 C 0.89919 0.10102 -0.10082
 H345 H 0.79081 0.21041 -0.13059
 H346 H 0.83089 0.17055 -0.09052
 H347 H 0.90949 0.17057 -0.16909
 H348 H 0.86941 0.21044 -0.20917
 H349 H 0.79050 0.13377 -0.20953
 H350 H 0.83053 0.09393 -0.16951
 C351 C 0.81454 0.68348 0.31633
 C352 C 0.85605 0.68724 0.30876
 C353 C 0.87726 0.66537 0.33021
 C354 C 0.85487 0.64188 0.35711
 C355 C 0.82737 0.62114 0.33282
 C356 C 0.80614 0.64303 0.31135
 C357 C 0.81006 0.69060 0.35786
 C358 C 0.83129 0.66871 0.37932
 C359 C 0.79184 0.70699 0.29319
 C360 C 0.77312 0.72617 0.27400
 C361 C 0.87803 0.61855 0.38002
 C362 C 0.89800 0.59994 0.39850
 H363 H 0.86775 0.70548 0.28836
 H364 H 0.90717 0.66486 0.32818
 H365 H 0.82478 0.59186 0.33252
 H366 H 0.78535 0.63253 0.29264
 H367 H 0.79182 0.71102 0.36937
 H368 H 0.83125 0.67034 0.40925
 C369 C 0.31599 0.18488 0.31599
 C370 C 0.30973 0.14428 0.30972
 C371 C 0.33131 0.12287 0.33130
 C372 C 0.35704 0.14417 0.35703
 C373 C 0.33149 0.16930 0.37912
 C374 C 0.30989 0.19073 0.35753
 C375 C 0.35753 0.19073 0.30989
 C376 C 0.37913 0.16931 0.33149
 C377 C 0.29274 0.20781 0.29274
 C378 C 0.27360 0.22666 0.27360
 C379 C 0.38009 0.12081 0.38008
 C380 C 0.39859 0.10080 0.39859
 H381 H 0.29008 0.13330 0.29007
 H382 H 0.33015 0.09352 0.33013
 H383 H 0.33047 0.17021 0.40907
 H384 H 0.29035 0.21000 0.36896
 H385 H 0.36896 0.21001 0.29036
 H386 H 0.40907 0.17022 0.33048
 C387 C 0.31634 0.68348 -0.18547
 C388 C 0.30986 0.64297 -0.19241
 C389 C 0.33133 0.62108 -0.17118
 C390 C 0.35712 0.64188 -0.14513
 C391 C 0.33168 0.66682 -0.12267
 C392 C 0.31024 0.68870 -0.14388
 C393 C 0.35790 0.68921 -0.19147
 C394 C 0.37937 0.66731 -0.17024
 C395 C 0.29320 0.70698 -0.20817
 C396 C 0.27401 0.72616 -0.22689
 C397 C 0.38003 0.61855 -0.12197
 C398 C 0.39850 0.59994 -0.10200
 H399 H 0.29018 0.63243 -0.21227
 H400 H 0.33005 0.59176 -0.17283
 H401 H 0.33061 0.66726 -0.09272
 H402 H 0.29079 0.70788 -0.13213
 H403 H 0.36944 0.70871 -0.21070
 H404 H 0.40931 0.66804 -0.17127
 C405 C 1.18416 -0.18690 -0.18370
 C406 C 1.19040 -0.14629 -0.18993
 C407 C 1.16873 -0.12484 -0.16832
 C408 C 1.14291 -0.14608 -0.14256
 C409 C 1.16840 -0.17117 -0.12053
 C410 C 1.19009 -0.19264 -0.14217
 C411 C 1.14264 -0.19277 -0.18974
 C412 C 1.12094 -0.17129 -0.16810
 C413 C 1.20759 -0.20982 -0.20706
 C414 C 1.22698 -0.22844 -0.22638
 C415 C 1.11976 -0.12263 -0.11944
 C416 C 1.10122 -0.10252 -0.10087
 H417 H 1.21012 -0.13533 -0.20960
 H418 H 1.16989 -0.09550 -0.16948
 H419 H 1.16930 -0.17203 -0.09059
 H420 H 1.20959 -0.21189 -0.13077
 H421 H 1.13129 -0.21209 -0.20927
 H422 H 1.09101 -0.17222 -0.16908
 C423 C 1.18641 0.31587 0.31647
 C424 C 1.19238 0.31031 0.35801
 C425 C 1.17134 0.33249 0.37953
 C426 C 1.14644 0.35800 0.35734
 C427 C 1.12376 0.33311 0.33209
 C428 C 1.14478 0.31095 0.31060
 C429 C 1.19369 0.35628 0.30984
 C430 C 1.17265 0.37846 0.33135
 C431 C 1.20892 0.29208 0.29327
 C432 C 1.22752 0.27274 0.27400
 C433 C 1.12348 0.38164 0.38030
 C434 C 1.10364 0.40048 0.39881
 H435 H 1.21146 0.29071 0.36950
 H436 H 1.17238 0.33191 0.40947
 H437 H 1.09381 0.33290 0.33118
 H438 H 1.13286 0.29175 0.29127
 H439 H 1.21362 0.36657 0.29001
 H440 H 1.17454 0.40775 0.32999
 C441 C 0.68424 -0.18615 0.31635
 C442 C 0.64276 -0.19257 0.31071
 C443 C 0.62099 -0.17118 0.33233
 C444 C 0.64287 -0.14550 0.35744
 C445 C 0.66820 -0.12416 0.33128
 C446 C 0.68995 -0.14554 0.30968
 C447 C 0.69061 -0.19147 0.35787
 C448 C 0.66884 -0.17007 0.37950
 C449 C 0.70767 -0.20904 0.29306
 C450 C 0.72691 -0.22787 0.27385
 C451 C 0.61962 -0.12217 0.38051
 C452 C 0.60096 -0.10216 0.39900
 H453 H 0.63148 -0.21220 0.29146
 H454 H 0.59105 -0.17247 0.33162
 H455 H 0.66898 -0.09482 0.32985
 H456 H 0.70937 -0.13454 0.28974
 H457 H 0.71045 -0.21038 0.36928
 H458 H 0.67001 -0.17065 0.40944
 C459 C 0.68414 0.31574 -0.18536
 C460 C 0.64261 0.31008 -0.19146
 C461 C 0.62100 0.33217 -0.17040
 C462 C 0.64305 0.35775 -0.14531
 C463 C 0.66913 0.37830 -0.17138
 C464 C 0.69074 0.35621 -0.19244
 C465 C 0.68985 0.31082 -0.14371
 C466 C 0.66826 0.33290 -0.12267
 C467 C 0.70746 0.29200 -0.20796
 C468 C 0.72674 0.27268 -0.22666
 C469 C 0.61992 0.38136 -0.12233
 C470 C 0.60123 0.40024 -0.10260
 H471 H 0.63118 0.29047 -0.21064
 H472 H 0.59106 0.33149 -0.17154
 H473 H 0.67049 0.40759 -0.17316
 H474 H 0.71062 0.36658 -0.21226
 H475 H 0.70915 0.29168 -0.13180
 H476 H 0.66908 0.33266 -0.09271
 C477 C 1.18406 0.18632 -0.18377
 C478 C 1.19021 0.19215 -0.14226
 C479 C 1.16880 0.17051 -0.12050
 C480 C 1.14332 0.14515 -0.14239
 C481 C 1.16913 0.12413 -0.16835
 C482 C 1.19052 0.14575 -0.19008
 C483 C 1.14246 0.19180 -0.18952
 C484 C 1.12105 0.17015 -0.16776
 C485 C 1.20721 0.20945 -0.20728
 C486 C 1.22639 0.22821 -0.22671
 C487 C 1.12040 0.12152 -0.11915
 C488 C 1.10193 0.10133 -0.10055
 H489 H 1.20965 0.21159 -0.13095
 H490 H 1.16989 0.17141 -0.09057
 H491 H 1.17048 0.09480 -0.16956
 H492 H 1.21018 0.13494 -0.20989
 H493 H 1.13085 0.21100 -0.20894
 H494 H 1.09110 0.17083 -0.16855
 C495 C 1.18630 0.68547 0.31473
 C496 C 1.19328 0.64498 0.30815
 C497 C 1.17212 0.62293 0.32972
 C498 C 1.14603 0.64351 0.35576
 C499 C 1.12352 0.66843 0.33050
 C500 C 1.14467 0.69047 0.30895
 C501 C 1.19231 0.69109 0.35628
 C502 C 1.17115 0.66904 0.37785
 C503 C 1.20905 0.70919 0.29143
 C504 C 1.22789 0.72850 0.27215
 C505 C 1.12294 0.61990 0.37889
 C506 C 1.10321 0.60099 0.39760
 H507 H 1.21312 0.63456 0.28831
 H508 H 1.17384 0.59363 0.32835
 H509 H 1.09356 0.66874 0.32961
 H510 H 1.13284 0.70964 0.28962
 H511 H 1.21151 0.71066 0.36776
 H512 H 1.17223 0.66972 0.40779
 C513 C 0.68353 0.18588 0.31542
 C514 C 0.68981 0.14529 0.30911
 C515 C 0.66809 0.12378 0.33063
 C516 C 0.64219 0.14495 0.35637
 C517 C 0.62028 0.17009 0.33083
 C518 C 0.64202 0.19161 0.30929
 C519 C 0.68935 0.19166 0.35698
 C520 C 0.66761 0.17013 0.37852
 C521 C 0.70697 0.20892 0.29220
 C522 C 0.72628 0.22781 0.27306
 C523 C 0.61898 0.12148 0.37940
 C524 C 0.60038 0.10141 0.39796
 H525 H 0.70959 0.13438 0.28947
 H526 H 0.66927 0.09444 0.32941
 H527 H 0.59035 0.17093 0.32977
 H528 H 0.63071 0.21090 0.28977
 H529 H 0.70881 0.21096 0.36848
 H530 H 0.66844 0.17100 0.40846
 C531 C 0.68329 0.68446 -0.18607
 C532 C 0.68973 0.64396 -0.19307
 C533 C 0.66816 0.62201 -0.17182
 C534 C 0.64229 0.64273 -0.14570
 C535 C 0.62018 0.66817 -0.17075
 C536 C 0.64175 0.69012 -0.19199
 C537 C 0.68924 0.68963 -0.14449
 C538 C 0.66769 0.66769 -0.12326
 C539 C 0.70657 0.70805 -0.20882
 C540 C 0.72586 0.72729 -0.22756
 C541 C 0.61925 0.61929 -0.12251
 C542 C 0.60068 0.60054 -0.10257
 H543 H 0.70947 0.63346 -0.21296
 H544 H 0.66941 0.59270 -0.17351
 H545 H 0.59024 0.66886 -0.17174
 H546 H 0.63029 0.70964 -0.21118
 H547 H 0.70867 0.70882 -0.13274
 H548 H 0.66867 0.66810 -0.09331
 C549 C 0.81577 -0.18569 -0.18423
 C550 C 0.85730 -0.19157 -0.19032
 C551 C 0.87899 -0.17019 -0.16863
 C552 C 0.85704 -0.14503 -0.14296
 C553 C 0.83136 -0.17018 -0.12101
 C554 C 0.80967 -0.19156 -0.14270
 C555 C 0.80971 -0.14504 -0.19030
 C556 C 0.83139 -0.12368 -0.16863
 C557 C 0.79233 -0.20856 -0.20767
 C558 C 0.77297 -0.22717 -0.22703
 C559 C 0.88025 -0.12168 -0.11976
 C560 C 0.89889 -0.10173 -0.10111
 H561 H 0.86865 -0.21084 -0.20993
 H562 H 0.90893 -0.17115 -0.16965
 H563 H 0.83034 -0.17113 -0.09107
 H564 H 0.79005 -0.21082 -0.13134
 H565 H 0.79011 -0.13400 -0.20990
 H566 H 0.83034 -0.09434 -0.16968
 C567 C 0.81407 0.31694 0.31562
 C568 C 0.85566 0.31175 0.30957
 C569 C 0.87690 0.33375 0.33099
 C570 C 0.85448 0.35880 0.35636
 C571 C 0.82931 0.33344 0.37863
 C572 C 0.80804 0.31142 0.35720
 C573 C 0.80721 0.35742 0.30906
 C574 C 0.82848 0.37944 0.33049
 C575 C 0.79131 0.29327 0.29249
 C576 C 0.77259 0.27394 0.27330
 C577 C 0.87769 0.38228 0.37929
 C578 C 0.89764 0.40099 0.39785
 H579 H 0.86739 0.29248 0.29018
 H580 H 0.90686 0.33333 0.32993
 H581 H 0.82825 0.33286 0.40858
 H582 H 0.78877 0.29196 0.36878
 H583 H 0.78739 0.36786 0.28934
 H584 H 0.82688 0.40875 0.32915
 C585 C 0.31463 -0.18588 0.31464
 C586 C 0.35617 -0.19173 0.30856
 C587 C 0.37786 -0.17032 0.33025
 C588 C 0.35591 -0.14515 0.35591
 C589 C 0.33025 -0.17031 0.37787
 C590 C 0.30855 -0.19171 0.35618
 C591 C 0.30856 -0.14524 0.30856
 C592 C 0.33024 -0.12385 0.33023
 C593 C 0.29122 -0.20887 0.29124
 C594 C 0.27196 -0.22777 0.27197
 C595 C 0.37917 -0.12180 0.37916
 C596 C 0.39788 -0.10193 0.39787
 H597 H 0.36754 -0.21099 0.28896
 H598 H 0.40780 -0.17127 0.32921
 H599 H 0.32921 -0.17125 0.40780
 H600 H 0.28895 -0.21097 0.36756
 H601 H 0.28895 -0.13421 0.28895
 H602 H 0.32917 -0.09450 0.32916
 C603 C 0.31562 0.31694 -0.18593
 C604 C 0.35720 0.31145 -0.19198
 C605 C 0.37863 0.33347 -0.17072
 C606 C 0.35636 0.35880 -0.14551
 C607 C 0.33102 0.33372 -0.12310
 C608 C 0.30960 0.31172 -0.14434
 C609 C 0.30903 0.35742 -0.19275
 C610 C 0.33046 0.37944 -0.17149
 C611 C 0.29249 0.29327 -0.20869
 C612 C 0.27330 0.27394 -0.22741
 C613 C 0.37930 0.38228 -0.12231
 C614 C 0.39785 0.40099 -0.10236
 H615 H 0.36878 0.29200 -0.21128
 H616 H 0.40858 0.33290 -0.17180
 H617 H 0.32998 0.33328 -0.09314
 H618 H 0.29023 0.29244 -0.13261
 H619 H 0.28929 0.36787 -0.21256
 H620 H 0.32910 0.40875 -0.17307
 C621 C 1.18494 -0.18632 0.18494
 C622 C 1.14337 -0.19206 0.19097
 C623 C 1.12179 -0.17053 0.16939
 C624 C 1.14386 -0.14534 0.14386
 C625 C 1.16941 -0.17053 0.12179
 C626 C 1.19098 -0.19205 0.14337
 C627 C 1.19121 -0.14569 0.19122
 C628 C 1.16965 -0.12419 0.16966
 C629 C 1.20829 -0.20939 0.20829
 C630 C 1.22759 -0.22816 0.22759
 C631 C 1.12072 -0.12183 0.12071
 C632 C 1.10210 -0.10184 0.10209
 H633 H 1.13189 -0.21135 0.21047
 H634 H 1.09185 -0.17141 0.17042
 H635 H 1.17044 -0.17140 0.09184
 H636 H 1.21048 -0.21134 0.13189
 H637 H 1.21087 -0.13476 0.21089
 H638 H 1.17088 -0.09485 0.17089
 C639 C 1.18530 0.31651 0.68384
 C640 C 1.14368 0.31138 0.68984
 C641 C 1.12255 0.33329 0.66832
 C642 C 1.14510 0.35820 0.64292
 C643 C 1.17022 0.33270 0.62076
 C644 C 1.19137 0.31077 0.64229
 C645 C 1.19229 0.35702 0.69030
 C646 C 1.17114 0.37895 0.66877
 C647 C 1.20797 0.29296 0.70706
 C648 C 1.22672 0.27376 0.72626
 C649 C 1.12204 0.38161 0.61989
 C650 C 1.10225 0.40033 0.60129
 H651 H 1.13185 0.29223 0.70926
 H652 H 1.09259 0.33291 0.66933
 H653 H 1.17133 0.33195 0.59081
 H654 H 1.21059 0.29123 0.63080
 H655 H 1.21211 0.36755 0.71003
 H656 H 1.17284 0.40826 0.67005
 C657 C 0.68375 -0.18486 0.68377
 C658 C 0.64221 -0.19073 0.68984
 C659 C 0.62059 -0.16934 0.66822
 C660 C 0.64264 -0.14419 0.64264
 C661 C 0.66823 -0.16933 0.62060
 C662 C 0.68985 -0.19072 0.64223
 C663 C 0.68995 -0.14422 0.68998
 C664 C 0.66835 -0.12285 0.66836
 C665 C 0.70705 -0.20778 0.70707
 C666 C 0.72623 -0.22662 0.72624
 C667 C 0.61952 -0.12089 0.61952
 C668 C 0.60094 -0.10097 0.60093
 H669 H 0.63080 -0.21000 0.70940
 H670 H 0.59065 -0.17029 0.66923
 H671 H 0.66926 -0.17028 0.59066
 H672 H 0.70942 -0.20999 0.63082
 H673 H 0.70958 -0.13320 0.70962
 H674 H 0.66948 -0.09351 0.66950
 C675 C 0.68384 0.31651 0.18530
 C676 C 0.64229 0.31078 0.19138
 C677 C 0.62076 0.33271 0.17023
 C678 C 0.64292 0.35819 0.14510
 C679 C 0.66831 0.33328 0.12255
 C680 C 0.68983 0.31137 0.14368
 C681 C 0.69031 0.35702 0.19228
 C682 C 0.66878 0.37894 0.17113
 C683 C 0.70706 0.29295 0.20797
 C684 C 0.72626 0.27376 0.22671
 C685 C 0.61989 0.38161 0.12204
 C686 C 0.60129 0.40033 0.10225
 H687 H 0.63080 0.29124 0.21061
 H688 H 0.59082 0.33196 0.17134
 H689 H 0.66931 0.33289 0.09259
 H690 H 0.70925 0.29221 0.13184
 H691 H 0.71005 0.36754 0.21209
 H692 H 0.67006 0.40826 0.17283
 C693 C 0.81623 0.18632 0.18406
 C694 C 0.80991 0.14574 0.19051
 C695 C 0.83164 0.12412 0.16912
 C696 C 0.85761 0.14515 0.14332
 C697 C 0.87950 0.17050 0.16880
 C698 C 0.85775 0.19214 0.19022
 C699 C 0.81049 0.19180 0.14246
 C700 C 0.83225 0.17016 0.12104
 C701 C 0.79272 0.20944 0.20721
 C702 C 0.77329 0.22821 0.22639
 C703 C 0.88085 0.12151 0.12040
 C704 C 0.89945 0.10133 0.10193
 H705 H 0.79010 0.13494 0.21016
 H706 H 0.83043 0.09479 0.17046
 H707 H 0.90943 0.17139 0.16990
 H708 H 0.86905 0.21157 0.20967
 H709 H 0.79108 0.21101 0.13085
 H710 H 0.83146 0.17083 0.09110
 C711 C 0.81392 0.68447 0.68329
 C712 C 0.80692 0.64397 0.68972
 C713 C 0.82816 0.62201 0.66815
 C714 C 0.85430 0.64273 0.64229
 C715 C 0.87674 0.66769 0.66770
 C716 C 0.85551 0.68962 0.68925
 C717 C 0.80801 0.69014 0.64174
 C718 C 0.82926 0.66818 0.62017
 C719 C 0.79117 0.70806 0.70656
 C720 C 0.77243 0.72730 0.72586
 C721 C 0.87748 0.61929 0.61924
 C722 C 0.89742 0.60054 0.60068
 H723 H 0.78702 0.63347 0.70946
 H724 H 0.82647 0.59271 0.66939
 H725 H 0.90669 0.66809 0.66867
 H726 H 0.86726 0.70881 0.70868
 H727 H 0.78883 0.70965 0.63029
 H728 H 0.82827 0.66887 0.59023
 C729 C 0.31542 0.18588 0.68353
 C730 C 0.30911 0.14529 0.68980
 C731 C 0.33062 0.12378 0.66808
 C732 C 0.35637 0.14495 0.64219
 C733 C 0.37852 0.17012 0.66762
 C734 C 0.35698 0.19165 0.68935
 C735 C 0.30930 0.19162 0.64202
 C736 C 0.33084 0.17010 0.62028
 C737 C 0.29221 0.20892 0.70697
 C738 C 0.27306 0.22781 0.72628
 C739 C 0.37941 0.12148 0.61897
 C740 C 0.39797 0.10141 0.60038
 H741 H 0.28946 0.13439 0.70957
 H742 H 0.32939 0.09444 0.66925
 H743 H 0.40846 0.17099 0.66845
 H744 H 0.36848 0.21095 0.70882
 H745 H 0.28979 0.21091 0.63071
 H746 H 0.32978 0.17094 0.59034
 C747 C 0.31473 0.68547 0.18631
 C748 C 0.30815 0.64499 0.19328
 C749 C 0.32971 0.62293 0.17211
 C750 C 0.35576 0.64351 0.14604
 C751 C 0.37786 0.66903 0.17116
 C752 C 0.35629 0.69109 0.19233
 C753 C 0.30896 0.69048 0.14468
 C754 C 0.33051 0.66844 0.12353
 C755 C 0.29144 0.70919 0.20906
 C756 C 0.27215 0.72850 0.22789
 C757 C 0.37889 0.61990 0.12294
 C758 C 0.39761 0.60099 0.10321
 H759 H 0.28830 0.63456 0.21311
 H760 H 0.32833 0.59363 0.17383
 H761 H 0.40780 0.66970 0.17225
 H762 H 0.36776 0.71065 0.21154
 H763 H 0.28965 0.70966 0.13285
 H764 H 0.32963 0.66876 0.09357
   
