data_POSCAR
  _audit_creation_date              2014-09-24
  _audit_creation_method            'ToBaCCo'
  _symmetry_space_group_name_H-M    'P1'
  _symmetry_Int_Tables_number       1
  _symmetry_cell_setting            triclinic
  loop_
  _symmetry_equiv_pos_as_xyz
 x,y,z
_cell_length_a 42.9786
_cell_length_b 42.9783
_cell_length_c 36.5171
_cell_angle_alpha 89.962000
_cell_angle_beta 89.963600
_cell_angle_gamma 89.994500
loop_
  _atom_site_label
  _atom_site_type_symbol
  _atom_site_fract_x
  _atom_site_fract_y
  _atom_site_fract_z
O1 O -0.03005 0.30663 0.03500
 O2 O 0.03095 0.30654 -0.03616
 O3 O -0.02984 0.30655 -0.03632
 O4 O 0.03073 0.30675 0.03518
 O5 O 0.03068 0.25529 0.03525
 O6 O -0.02970 0.25510 -0.03603
 O7 O 0.03089 0.25509 -0.03586
 O8 O -0.02989 0.25517 0.03507
 Cu9 Cu 0.00044 0.31183 -0.00060
 Cu10 Cu 0.00050 0.24999 -0.00038
 C11 C -0.04033 0.28086 0.04692
 C12 C 0.04129 0.28074 -0.04790
 C13 C -0.04007 0.28074 -0.04811
 C14 C 0.04100 0.28101 0.04716
 O15 O 0.46953 0.80621 0.53567
 O16 O 0.53017 0.80608 0.46414
 O17 O 0.46937 0.80612 0.46433
 O18 O 0.53033 0.80602 0.53547
 O19 O 0.53013 0.75456 0.53542
 O20 O 0.46939 0.75467 0.46449
 O21 O 0.52999 0.75462 0.46429
 O22 O 0.46953 0.75476 0.53562
 Cu23 Cu 0.49986 0.81132 0.49990
 Cu24 Cu 0.49975 0.74948 0.49996
 C25 C 0.45922 0.78046 0.54759
 C26 C 0.54039 0.78029 0.45227
 C27 C 0.45903 0.78036 0.45252
 C28 C 0.54059 0.78022 0.54733
 O29 O 1.03145 0.69454 0.03561
 O30 O 0.97058 0.69458 -0.03562
 O31 O 1.03137 0.69454 -0.03574
 O32 O 0.97065 0.69455 0.03571
 O33 O 0.97077 0.74601 0.03557
 O34 O 1.03129 0.74599 -0.03566
 O35 O 0.97069 0.74603 -0.03554
 O36 O 1.03137 0.74599 0.03548
 Cu37 Cu 1.00102 0.68935 -0.00000
 Cu38 Cu 1.00104 0.75118 -0.00004
 C39 C 1.04176 0.72031 0.04746
 C40 C 0.96028 0.72036 -0.04747
 C41 C 1.04165 0.72032 -0.04765
 C42 C 0.96038 0.72033 0.04756
 O43 O 0.46960 0.19271 0.46459
 O44 O 0.53017 0.19283 0.53610
 O45 O 0.46938 0.19274 0.53593
 O46 O 0.53038 0.19290 0.46477
 O47 O 0.53015 0.24436 0.46487
 O48 O 0.46937 0.24419 0.53580
 O49 O 0.52995 0.24429 0.53597
 O50 O 0.46958 0.24417 0.46469
 Cu51 Cu 0.49989 0.18758 0.50035
 Cu52 Cu 0.49975 0.24943 0.50033
 C53 C 0.45930 0.21847 0.45269
 C54 C 0.54036 0.21863 0.54797
 C55 C 0.45901 0.21849 0.54776
 C56 C 0.54064 0.21871 0.45294
 O57 O 0.69339 0.02999 -0.03497
 O58 O 0.69341 -0.03099 0.03622
 O59 O 0.69338 0.02980 0.03636
 O60 O 0.69331 -0.03079 -0.03512
 O61 O 0.74477 -0.03071 -0.03510
 O62 O 0.74484 0.02968 0.03616
 O63 O 0.74486 -0.03091 0.03601
 O64 O 0.74484 0.02986 -0.03494
 Cu65 Cu 0.68816 -0.00050 0.00064
 Cu66 Cu 0.75000 -0.00053 0.00053
 C67 C 0.71917 0.04028 -0.04684
 C68 C 0.71920 -0.04132 0.04801
 C69 C 0.71918 0.04005 0.04819
 C70 C 0.71907 -0.04104 -0.04706
 O71 O 0.19390 0.46970 0.53633
 O72 O 0.19376 0.53034 0.46479
 O73 O 0.19396 0.46954 0.46500
 O74 O 0.19383 0.53050 0.53614
 O75 O 0.24529 0.53050 0.53598
 O76 O 0.24541 0.46976 0.46507
 O77 O 0.24522 0.53035 0.46485
 O78 O 0.24536 0.46990 0.53618
 Cu79 Cu 0.18866 0.50001 0.50057
 Cu80 Cu 0.25049 0.50014 0.50052
 C81 C 0.21970 0.45949 0.54820
 C82 C 0.21951 0.54064 0.45286
 C83 C 0.21976 0.45929 0.45315
 C84 C 0.21959 0.54085 0.54795
 O85 O 0.30538 0.96957 -0.03680
 O86 O 0.30551 1.03046 0.03441
 O87 O 0.30561 0.96967 0.03453
 O88 O 0.30534 1.03038 -0.03693
 O89 O 0.25389 1.03022 -0.03659
 O90 O 0.25415 0.96972 0.03466
 O91 O 0.25405 1.03030 0.03453
 O92 O 0.25393 0.96961 -0.03646
 Cu93 Cu 0.31066 1.00002 -0.00123
 Cu94 Cu 0.24883 0.99996 -0.00095
 C95 C 0.27959 0.95922 -0.04852
 C96 C 0.27975 1.04072 0.04637
 C97 C 0.27987 0.95938 0.04654
 C98 C 0.27952 1.04064 -0.04869
 O99 O 0.80714 0.46978 0.46395
 O100 O 0.80732 0.53036 0.53544
 O101 O 0.80712 0.46957 0.53527
 O102 O 0.80721 0.53057 0.46411
 O103 O 0.75576 0.53057 0.46431
 O104 O 0.75567 0.46980 0.53524
 O105 O 0.75586 0.53038 0.53542
 O106 O 0.75568 0.46999 0.46414
 Cu107 Cu 0.81241 0.50006 0.49969
 Cu108 Cu 0.75057 0.50020 0.49979
 C109 C 0.78133 0.45959 0.45211
 C110 C 0.78157 0.54067 0.54737
 C111 C 0.78133 0.45931 0.54714
 C112 C 0.78144 0.54093 0.45232
 O113 O 0.24387 0.20119 0.23885
 O114 O 0.22692 0.26921 0.29689
 O115 O 0.20133 0.24413 0.23918
 O116 O 0.26947 0.22627 0.29657
 O117 O 0.29889 0.25562 0.26080
 O118 O 0.23075 0.27348 0.20342
 O119 O 0.25633 0.29856 0.26113
 O120 O 0.27329 0.23054 0.20309
 Cu121 Cu 0.23243 0.23224 0.27148
 Cu122 Cu 0.26779 0.26751 0.22851
 C123 C 0.26126 0.20444 0.21101
 C124 C 0.23893 0.29532 0.28895
 C125 C 0.20459 0.26163 0.21146
 C126 C 0.29563 0.23811 0.28852
 O127 O 0.70144 0.74426 0.26035
 O128 O 0.76986 0.72729 0.20294
 O129 O 0.74442 0.70175 0.26053
 O130 O 0.72687 0.76980 0.20273
 O131 O 0.75594 0.79931 0.23862
 O132 O 0.77349 0.73126 0.29642
 O133 O 0.79893 0.75679 0.23883
 O134 O 0.73051 0.77376 0.29623
 Cu135 Cu 0.73271 0.73280 0.22802
 Cu136 Cu 0.76765 0.76826 0.27114
 C137 C 0.70448 0.76169 0.28814
 C138 C 0.79589 0.73934 0.21106
 C139 C 0.76175 0.70506 0.28837
 C140 C 0.73863 0.79600 0.21077
 O141 O 0.79893 0.24395 0.23892
 O142 O 0.73093 0.22667 0.29693
 O143 O 0.75624 0.20115 0.23930
 O144 O 0.77363 0.26946 0.29657
 O145 O 0.74416 0.29867 0.26074
 O146 O 0.72678 0.23036 0.20347
 O147 O 0.70147 0.25588 0.26110
 O148 O 0.76946 0.27317 0.20309
 Cu149 Cu 0.76791 0.23236 0.27154
 Cu150 Cu 0.73249 0.26747 0.22849
 C151 C 0.79563 0.26131 0.21107
 C152 C 0.70477 0.23852 0.28895
 C153 C 0.73874 0.20427 0.21158
 C154 C 0.76166 0.29555 0.28846
 O155 O 0.20085 0.75599 0.23855
 O156 O 0.26892 0.77320 0.29638
 O157 O 0.24361 0.79870 0.23871
 O158 O 0.22617 0.73046 0.29624
 O159 O 0.25557 0.70118 0.26042
 O160 O 0.27301 0.76941 0.20289
 O161 O 0.29831 0.74391 0.26056
 O162 O 0.23024 0.72670 0.20273
 Cu163 Cu 0.23192 0.76754 0.27108
 Cu164 Cu 0.26724 0.73234 0.22804
 C165 C 0.20411 0.73864 0.21072
 C166 C 0.29506 0.76128 0.28838
 C167 C 0.26107 0.79553 0.21093
 C168 C 0.23812 0.70435 0.28820
 O169 O 0.70135 0.25574 0.73926
 O170 O 0.76967 0.27310 0.79652
 O171 O 0.74416 0.29843 0.73890
 O172 O 0.72686 0.23043 0.79690
 O173 O 0.75606 0.20096 0.76107
 O174 O 0.77336 0.26896 0.70306
 O175 O 0.79887 0.24364 0.76069
 O176 O 0.73056 0.22627 0.70343
 Cu177 Cu 0.73256 0.26740 0.77151
 Cu178 Cu 0.76766 0.23198 0.72844
 C179 C 0.70447 0.23825 0.71153
 C180 C 0.79576 0.26113 0.78841
 C181 C 0.76151 0.29513 0.71106
 C182 C 0.73872 0.20426 0.78892
 O183 O 0.29846 0.74460 0.73979
 O184 O 0.23022 0.72726 0.79735
 O185 O 0.25576 0.70182 0.73977
 O186 O 0.27287 0.77009 0.79733
 O187 O 0.24357 0.79934 0.76136
 O188 O 0.22646 0.73108 0.70382
 O189 O 0.20091 0.75652 0.76140
 O190 O 0.26916 0.77386 0.70383
 Cu191 Cu 0.26728 0.73300 0.77219
 Cu192 Cu 0.23207 0.76815 0.72898
 C193 C 0.29528 0.76196 0.71194
 C194 C 0.20409 0.73915 0.78924
 C195 C 0.23841 0.70498 0.71193
 C196 C 0.26092 0.79619 0.78921
 O197 O 0.20071 0.24378 0.76160
 O198 O 0.26875 0.22622 0.70379
 O199 O 0.24320 0.20077 0.76137
 O200 O 0.22627 0.26923 0.70401
 O201 O 0.25579 0.29826 0.73992
 O202 O 0.27272 0.22980 0.79728
 O203 O 0.29827 0.25526 0.73970
 O204 O 0.23023 0.27281 0.79751
 Cu205 Cu 0.23175 0.23207 0.72907
 Cu206 Cu 0.26723 0.26696 0.77222
 C207 C 0.20403 0.26109 0.78946
 C208 C 0.29495 0.23796 0.71184
 C209 C 0.26064 0.20377 0.78915
 C210 C 0.23836 0.29525 0.71213
 O211 O 0.79913 0.75632 0.76083
 O212 O 0.73090 0.77317 0.70309
 O213 O 0.75610 0.79878 0.76071
 O214 O 0.77390 0.73067 0.70325
 O215 O 0.74471 0.70120 0.73914
 O216 O 0.72692 0.76931 0.79659
 O217 O 0.70171 0.74370 0.73897
 O218 O 0.76995 0.72686 0.79673
 Cu219 Cu 0.76795 0.76771 0.72835
 Cu220 Cu 0.73288 0.73229 0.77148
 C221 C 0.79601 0.73893 0.78868
 C222 C 0.70483 0.76111 0.71114
 C223 C 0.73869 0.79549 0.78850
 C224 C 0.76213 0.70449 0.71135
 C225 C 0.27949 0.06492 0.07343
 C226 C 0.27854 0.08557 0.09572
 C227 C 0.27658 0.11011 0.12131
 C228 C 0.27419 0.13135 0.14268
 C229 C 0.27055 0.15653 0.16713
 C230 C 0.26671 0.17827 0.18748
 C231 C 0.78134 0.56479 0.57448
 C232 C 0.78037 0.58542 0.59678
 C233 C 0.77833 0.60997 0.62230
 C234 C 0.77582 0.63124 0.64358
 C235 C 0.77197 0.65647 0.66787
 C236 C 0.76791 0.67827 0.68805
 C237 C 0.71950 0.93574 0.07358
 C238 C 0.72048 0.91505 0.09586
 C239 C 0.72255 0.89047 0.12140
 C240 C 0.72507 0.86920 0.14272
 C241 C 0.72890 0.84397 0.16708
 C242 C 0.73293 0.82219 0.18735
 C243 C 0.22003 0.43533 0.57532
 C244 C 0.22102 0.41467 0.59761
 C245 C 0.22300 0.39007 0.62314
 C246 C 0.22540 0.36876 0.64441
 C247 C 0.22906 0.34346 0.66869
 C248 C 0.23290 0.32158 0.68886
 C249 C 0.93542 0.28056 0.07394
 C250 C 0.91471 0.27952 0.09618
 C251 C 0.89010 0.27740 0.12169
 C252 C 0.86882 0.27485 0.14298
 C253 C 0.84359 0.27099 0.16734
 C254 C 0.82181 0.26697 0.18761
 C255 C 0.43508 0.78024 0.57473
 C256 C 0.41444 0.77932 0.59706
 C257 C 0.38988 0.77741 0.62264
 C258 C 0.36860 0.77505 0.64397
 C259 C 0.34335 0.77140 0.66832
 C260 C 0.32153 0.76752 0.68857
 C261 C 0.06464 0.72056 0.07307
 C262 C 0.08527 0.72146 0.09540
 C263 C 0.10979 0.72335 0.12103
 C264 C 0.13101 0.72570 0.14242
 C265 C 0.15618 0.72932 0.16688
 C266 C 0.17793 0.73315 0.18722
 C267 C 0.56450 0.21898 0.57506
 C268 C 0.58515 0.22003 0.59733
 C269 C 0.60973 0.22214 0.62280
 C270 C 0.63104 0.22469 0.64402
 C271 C 0.65632 0.22855 0.66823
 C272 C 0.67818 0.23257 0.68833
 C273 C 0.71948 0.06452 0.92613
 C274 C 0.72053 0.08522 0.90387
 C275 C 0.72265 0.10981 0.87835
 C276 C 0.72520 0.13109 0.85704
 C277 C 0.72905 0.15631 0.83267
 C278 C 0.73307 0.17808 0.81238
 C279 C 0.21974 0.56476 0.42568
 C280 C 0.22066 0.58537 0.40331
 C281 C 0.22259 0.60988 0.37767
 C282 C 0.22497 0.63112 0.35629
 C283 C 0.22864 0.65632 0.33187
 C284 C 0.23254 0.67812 0.31160
 C285 C 0.27927 0.93627 0.92595
 C286 C 0.27832 0.91556 0.90372
 C287 C 0.27636 0.89093 0.87826
 C288 C 0.27396 0.86961 0.85702
 C289 C 0.27030 0.84431 0.83274
 C290 C 0.26643 0.82247 0.81255
 C291 C 0.78096 0.43546 0.42501
 C292 C 0.77989 0.41481 0.40273
 C293 C 0.77777 0.39025 0.37724
 C294 C 0.77522 0.36896 0.35601
 C295 C 0.77136 0.34368 0.33179
 C296 C 0.76733 0.32184 0.31168
 C297 C 0.06424 0.28042 0.92655
 C298 C 0.08494 0.27940 0.90428
 C299 C 0.10953 0.27729 0.87876
 C300 C 0.13082 0.27474 0.85746
 C301 C 0.15605 0.27086 0.83312
 C302 C 0.17783 0.26681 0.81287
 C303 C 0.56453 0.77996 0.42513
 C304 C 0.58518 0.77898 0.40282
 C305 C 0.60975 0.77701 0.37726
 C306 C 0.63104 0.77462 0.35596
 C307 C 0.65631 0.77098 0.33164
 C308 C 0.67817 0.76715 0.31144
 C309 C 0.93604 0.72067 0.92553
 C310 C 0.91533 0.72165 0.90331
 C311 C 0.89070 0.72363 0.87785
 C312 C 0.86938 0.72603 0.85660
 C313 C 0.84410 0.72967 0.83230
 C314 C 0.82226 0.73349 0.81207
 C315 C 0.43520 0.21873 0.42555
 C316 C 0.41459 0.21973 0.40322
 C317 C 0.39008 0.22180 0.37764
 C318 C 0.36884 0.22434 0.35633
 C319 C 0.34363 0.22823 0.33201
 C320 C 0.32185 0.23231 0.31182
 C321 C 0.71935 0.93488 0.92578
 C322 C 0.72036 0.91430 0.90341
 C323 C 0.72243 0.88983 0.87779
 C324 C 0.72497 0.86862 0.85644
 C325 C 0.72884 0.84345 0.83207
 C326 C 0.73292 0.82169 0.81184
 C327 C 0.22012 0.43505 0.42614
 C328 C 0.22117 0.41436 0.40391
 C329 C 0.22326 0.38977 0.37840
 C330 C 0.22575 0.36849 0.35710
 C331 C 0.22950 0.34328 0.33273
 C332 C 0.23341 0.32150 0.31244
 C333 C 0.27916 0.06354 0.92571
 C334 C 0.27817 0.08423 0.90344
 C335 C 0.27616 0.10886 0.87796
 C336 C 0.27373 0.13020 0.85673
 C337 C 0.27002 0.15553 0.83251
 C338 C 0.26614 0.17743 0.81239
 C339 C 0.78115 0.56518 0.42531
 C340 C 0.78011 0.58590 0.40308
 C341 C 0.77799 0.61052 0.37759
 C342 C 0.77542 0.63181 0.35632
 C343 C 0.77154 0.65706 0.33200
 C344 C 0.76748 0.67886 0.31177
 C345 C 0.06449 0.72058 0.92668
 C346 C 0.08510 0.72151 0.90430
 C347 C 0.10961 0.72348 0.87866
 C348 C 0.13085 0.72590 0.85728
 C349 C 0.15605 0.72963 0.83288
 C350 C 0.17785 0.73356 0.81262
 C351 C 0.56490 0.21909 0.42595
 C352 C 0.58562 0.22019 0.40372
 C353 C 0.61024 0.22236 0.37825
 C354 C 0.63154 0.22495 0.35698
 C355 C 0.65679 0.22883 0.33265
 C356 C 0.67858 0.23286 0.31240
 C357 C 0.93578 0.28037 0.92481
 C358 C 0.91512 0.27931 0.90256
 C359 C 0.89053 0.27720 0.87710
 C360 C 0.86921 0.27466 0.85589
 C361 C 0.84392 0.27081 0.83171
 C362 C 0.82205 0.26680 0.81161
 C363 C 0.43480 0.78008 0.42550
 C364 C 0.41411 0.77908 0.40326
 C365 C 0.38953 0.77704 0.37774
 C366 C 0.36826 0.77456 0.35644
 C367 C 0.34304 0.77080 0.33208
 C368 C 0.32126 0.76686 0.31181
 C369 C 0.27967 0.93524 0.07368
 C370 C 0.27875 0.91461 0.09602
 C371 C 0.27679 0.89007 0.12161
 C372 C 0.27436 0.86881 0.14296
 C373 C 0.27064 0.84358 0.16733
 C374 C 0.26669 0.82177 0.18757
 C375 C 0.78096 0.43505 0.57413
 C376 C 0.77988 0.41432 0.59634
 C377 C 0.77771 0.38968 0.62181
 C378 C 0.77512 0.36838 0.64307
 C379 C 0.77123 0.34312 0.66738
 C380 C 0.76719 0.32132 0.68762
 C381 C 0.71951 0.06420 0.07525
 C382 C 0.72055 0.08488 0.09749
 C383 C 0.72265 0.10948 0.12294
 C384 C 0.72519 0.13080 0.14413
 C385 C 0.72904 0.15611 0.16830
 C386 C 0.73306 0.17798 0.18839
 C387 C 0.21986 0.56508 0.57497
 C388 C 0.22084 0.58577 0.59722
 C389 C 0.22285 0.61037 0.62273
 C390 C 0.22529 0.63165 0.64402
 C391 C 0.22900 0.65690 0.66835
 C392 C 0.23289 0.67872 0.68857
 C393 C 0.93618 0.72064 0.07462
 C394 C 0.91546 0.72165 0.09685
 C395 C 0.89082 0.72368 0.12230
 C396 C 0.86946 0.72615 0.14350
 C397 C 0.84412 0.72989 0.16770
 C398 C 0.82223 0.73381 0.18782
 C399 C 0.43477 0.21875 0.57478
 C400 C 0.41406 0.21976 0.59702
 C401 C 0.38946 0.22184 0.62253
 C402 C 0.36817 0.22437 0.64382
 C403 C 0.34293 0.22822 0.66817
 C404 C 0.32115 0.23225 0.68842
 C405 C 0.06508 0.28078 0.07431
 C406 C 0.08568 0.27982 0.09666
 C407 C 0.11018 0.27780 0.12226
 C408 C 0.13141 0.27530 0.14359
 C409 C 0.15660 0.27146 0.16794
 C410 C 0.17838 0.26741 0.18815
 C411 C 0.56484 0.77986 0.57432
 C412 C 0.58555 0.77881 0.59653
 C413 C 0.61017 0.77673 0.62200
 C414 C 0.63148 0.77423 0.64325
 C415 C 0.65675 0.77049 0.66755
 C416 C 0.67857 0.76659 0.68776
   
