data_POSCAR
  _audit_creation_date              2014-09-24
  _audit_creation_method            'ToBaCCo'
  _symmetry_space_group_name_H-M    'P1'
  _symmetry_Int_Tables_number       1
  _symmetry_cell_setting            triclinic
  loop_
  _symmetry_equiv_pos_as_xyz
 x,y,z
_cell_length_a 43.5564
_cell_length_b 44.0193
_cell_length_c 42.5929
_cell_angle_alpha 89.822100
_cell_angle_beta 90.076900
_cell_angle_gamma 90.099100
loop_
  _atom_site_label
  _atom_site_type_symbol
  _atom_site_fract_x
  _atom_site_fract_y
  _atom_site_fract_z
C1 C 0.17146 0.17961 0.21283
 C2 C 0.15809 0.20458 0.19715
 C3 C 0.17053 0.21589 0.16916
 C4 C 0.19754 0.20323 0.15727
 C5 C 0.21197 0.17855 0.17235
 C6 C 0.19819 0.16655 0.19976
 H7 H 0.13666 0.21412 0.20532
 H8 H 0.20650 0.21210 0.13539
 H9 H 0.20981 0.14864 0.21246
 C10 C -0.16872 0.82673 0.20780
 C11 C -0.15505 0.80175 0.19259
 C12 C -0.16670 0.79066 0.16415
 C13 C -0.19270 0.80417 0.15080
 C14 C -0.20684 0.82896 0.16541
 C15 C -0.19480 0.84013 0.19372
 H16 H -0.13438 0.79148 0.20193
 H17 H -0.20170 0.79563 0.12878
 H18 H -0.20633 0.85898 0.20489
 C19 C -0.17265 0.16941 -0.20844
 C20 C -0.19829 0.15596 -0.19354
 C21 C -0.21054 0.16828 -0.16590
 C22 C -0.19637 0.19354 -0.15215
 C23 C -0.17060 0.20695 -0.16609
 C24 C -0.15929 0.19528 -0.19440
 H25 H -0.21007 0.13695 -0.20425
 H26 H -0.20539 0.20277 -0.13048
 H27 H -0.13870 0.20536 -0.20416
 C28 C 0.18154 0.82303 -0.21736
 C29 C 0.16782 0.79697 -0.20388
 C30 C 0.18123 0.78215 -0.17801
 C31 C 0.20832 0.79382 -0.16491
 C32 C 0.22184 0.82019 -0.17714
 C33 C 0.20867 0.83435 -0.20345
 H34 H 0.14756 0.78694 -0.21436
 H35 H 0.21823 0.78303 -0.14436
 H36 H 0.21917 0.85503 -0.21213
 C37 C 0.17520 1.17461 0.78786
 C38 C 0.20024 1.16104 0.80357
 C39 C 0.21332 1.17432 0.83032
 C40 C 0.20208 1.20218 0.84108
 C41 C 0.17700 1.21613 0.82622
 C42 C 0.16338 1.20204 0.80003
 H43 H 0.20901 1.13929 0.79595
 H44 H 0.21201 1.21237 0.86189
 H45 H 0.14462 1.21353 0.78829
 C46 C 0.82745 0.83330 0.79455
 C47 C 0.80012 0.84472 0.80756
 C48 C 0.78621 0.83064 0.83336
 C49 C 0.79997 0.80507 0.84699
 C50 C 0.82709 0.79254 0.83442
 C51 C 0.84016 0.80665 0.80771
 H52 H 0.78898 0.86437 0.79730
 H53 H 0.78838 0.79418 0.86648
 H54 H 0.86204 0.79868 0.79912
 C55 C 0.17276 0.82206 1.21419
 C56 C 0.15872 0.79596 1.20124
 C57 C 0.17212 0.78052 1.17589
 C58 C 0.19938 0.79165 1.16266
 C59 C 0.21302 0.81818 1.17418
 C60 C 0.19995 0.83294 1.20003
 H61 H 0.13829 0.78637 1.21181
 H62 H 0.20934 0.78031 1.14255
 H63 H 0.21062 0.85370 1.20819
 C64 C 0.83222 1.17438 1.20678
 C65 C 0.80410 1.16227 1.19592
 C66 C 0.78742 1.17648 1.17175
 C67 C 0.79867 1.20347 1.15847
 C68 C 0.82626 1.21620 1.16912
 C69 C 0.84291 1.20160 1.19299
 H70 H 0.79543 1.14107 1.20533
 H71 H 0.78603 1.21455 1.13974
 H72 H 0.86384 1.21222 1.20123
 O73 O 0.54229 0.94763 0.95043
 O74 O 0.57510 0.97382 0.98263
 C75 C 0.56966 0.95462 0.96034
 O76 O 0.45900 1.05892 0.95241
 O77 O 0.42336 1.02974 0.97827
 C78 C 0.43087 1.05153 0.95915
 O79 O 0.54539 1.05288 0.95215
 O80 O 0.57678 1.02358 0.98312
 C81 C 0.57232 1.04357 0.96119
 O82 O 0.45570 0.94696 0.94989
 O83 O 0.42201 0.97736 0.97659
 C84 C 0.42811 0.95599 0.95668
 Zr85 Zr 0.49875 0.96294 0.96642
 O86 O 0.49715 0.96461 0.91676
 O87 O 0.50090 0.91492 0.96521
 Zr88 Zr 0.50102 1.03973 0.96782
 O89 O 0.49916 1.04027 0.91814
 O90 O 0.50624 1.08753 0.96819
 O91 O 0.52742 1.00066 0.96220
 O92 O 0.47345 1.00222 0.96027
 O93 O 0.45136 0.94491 1.05791
 O94 O 0.41979 0.97577 1.02886
 C95 C 0.42437 0.95384 1.04871
 O96 O 0.54084 1.05152 1.06667
 O97 O 0.57445 1.02279 1.03794
 C98 C 0.56839 1.04251 1.05956
 O99 O 0.45448 1.05614 1.06075
 O100 O 0.42138 1.02790 1.03066
 C101 C 0.42704 1.04835 1.05172
 O102 O 0.53768 0.94567 1.06517
 O103 O 0.57302 0.97231 1.03625
 C104 C 0.56575 0.95268 1.05772
 Zr105 Zr 0.49560 0.96146 1.04588
 O106 O 0.48996 0.96099 1.09524
 O107 O 0.49783 0.91342 1.04558
 Zr108 Zr 0.49786 1.03845 1.04714
 O109 O 0.49276 1.03780 1.09655
 O110 O 0.50254 1.08634 1.04752
 Zr111 Zr 0.54369 0.99933 1.00882
 Zr112 Zr 0.45283 1.00186 1.00492
 O113 O 0.46996 1.00052 1.05114
 O114 O 0.52375 0.99907 1.05387
 O115 O 0.46973 0.95700 1.00488
 O116 O 0.52626 1.04386 1.00868
 O117 O 0.52351 0.95589 1.00719
 O118 O 0.47226 1.04575 1.00645
 H119 H 0.46014 1.00308 0.94141
 H120 H 0.54084 1.06115 1.00946
 H121 H 0.45533 1.00036 1.06893
 H122 H 0.53683 0.93767 1.00744
 H123 H 0.48999 1.09582 0.98188
 H124 H 0.48526 1.09491 1.03530
 H125 H 0.50907 1.02458 1.10517
 H126 H 0.50731 0.97247 1.10442
 H127 H 0.48156 0.90606 1.03127
 H128 H 0.48358 0.90708 0.97787
 H129 H 0.51555 0.97581 0.90953
 H130 H 0.51652 1.02795 0.91041
 O131 O 0.05832 0.45901 -0.05728
 O132 O 0.02722 0.42557 -0.03082
 C133 C 0.04944 0.43160 -0.05003
 O134 O 0.04734 0.54438 0.05468
 O135 O 0.02114 0.57717 0.02247
 C136 C 0.03953 0.57156 0.04573
 O137 O 0.05106 0.45913 0.05236
 O138 O 0.02464 0.42523 0.02160
 C139 C 0.04416 0.43169 0.04369
 O140 O 0.05434 0.54502 -0.05979
 O141 O 0.02371 0.57753 -0.03178
 C142 C 0.04493 0.57210 -0.05234
 Zr143 Zr 0.04005 0.50174 -0.04293
 O144 O 0.08825 0.50588 -0.03794
 O145 O 0.04475 0.49889 -0.09227
 Zr146 Zr 0.03451 0.50151 0.03610
 O147 O 0.08287 0.50554 0.03911
 O148 O 0.03140 0.49814 0.08558
 O149 O 0.04366 0.47452 -0.00298
 O150 O 0.04229 0.52819 -0.00305
 O151 O -0.05128 0.54293 -0.06763
 O152 O -0.02678 0.57644 -0.03493
 C153 C -0.04474 0.57027 -0.05835
 O154 O -0.06033 0.45689 0.04453
 O155 O -0.02825 0.42446 0.01829
 C156 C -0.05111 0.42983 0.03691
 O157 O -0.05966 0.54228 0.04694
 O158 O -0.03018 0.57628 0.01931
 C159 C -0.05157 0.56977 0.03941
 O160 O -0.05294 0.45757 -0.06477
 O161 O -0.02528 0.42458 -0.03409
 C162 C -0.04518 0.43036 -0.05599
 Zr163 Zr -0.03756 0.50043 -0.04867
 O164 O -0.08600 0.50301 -0.05190
 O165 O -0.03434 0.49723 -0.09814
 Zr166 Zr -0.04303 0.49999 0.03062
 O167 O -0.09145 0.50225 0.02692
 O168 O -0.04622 0.49658 0.08010
 Zr169 Zr -0.00086 0.45586 -0.00626
 Zr170 Zr -0.00245 0.54598 -0.00613
 O171 O -0.04642 0.52642 -0.00941
 O172 O -0.04588 0.47304 -0.00950
 O173 O 0.00117 0.52811 -0.05188
 O174 O -0.00417 0.47442 0.03907
 O175 O 0.00199 0.47488 -0.05158
 O176 O -0.00517 0.52778 0.03960
 H177 H 0.05994 0.54238 -0.00188
 H178 H -0.00515 0.46063 0.05748
 H179 H -0.06459 0.53988 -0.01076
 H180 H 0.00331 0.46134 -0.07007
 H181 H 0.01783 0.51469 0.09281
 H182 H -0.03464 0.51384 0.08911
 H183 H -0.09820 0.48500 0.01377
 H184 H -0.09456 0.48567 -0.03995
 H185 H -0.02121 0.51417 -0.10545
 H186 H 0.03085 0.51420 -0.10159
 H187 H 0.09569 0.48744 -0.02701
 H188 H 0.09185 0.48858 0.02706
 O189 O 1.05652 -0.05243 0.54337
 O190 O 1.02548 -0.02725 0.57810
 C191 C 1.04735 -0.04613 0.57166
 O192 O 1.05162 0.05839 0.45773
 O193 O 1.02500 0.02897 0.42261
 C194 C 1.04446 0.05028 0.42929
 O195 O 1.05355 0.05350 0.54608
 O196 O 1.02426 0.02442 0.57938
 C197 C 1.04495 0.04500 0.57397
 O198 O 1.05399 -0.05278 0.45469
 O199 O 1.02513 -0.02373 0.42094
 C200 C 1.04526 -0.04469 0.42666
 Zr201 Zr 1.03961 -0.03683 0.49934
 O202 O 1.08803 -0.03359 0.49620
 O203 O 1.04275 -0.08476 0.50134
 Zr204 Zr 1.03704 0.03974 0.50144
 O205 O 1.08553 0.04113 0.49854
 O206 O 1.03533 0.08757 0.50605
 O207 O 1.04400 0.00079 0.52864
 O208 O 1.04403 0.00235 0.47309
 O209 O 0.94815 -0.05573 0.45377
 O210 O 0.97463 -0.02397 0.42068
 C211 C 0.95554 -0.04599 0.42595
 O212 O 0.94161 0.05015 0.54522
 O213 O 0.97165 0.02243 0.57902
 C214 C 0.94981 0.04164 0.57324
 O215 O 0.94424 0.05470 0.45715
 O216 O 0.97381 0.02826 0.42205
 C217 C 0.95277 0.04803 0.42878
 O218 O 0.94540 -0.05660 0.54191
 O219 O 0.97301 -0.02870 0.57757
 C220 C 0.95294 -0.04939 0.57045
 Zr221 Zr 0.96177 -0.03948 0.49853
 O222 O 0.91328 -0.04005 0.49490
 O223 O 0.96261 -0.08755 0.50018
 Zr224 Zr 0.95936 0.03723 0.50087
 O225 O 0.91090 0.03570 0.49735
 O226 O 0.95811 0.08510 0.50534
 Zr227 Zr 0.99896 -0.00137 0.54674
 Zr228 Zr 0.99965 0.00153 0.45353
 O229 O 0.95511 -0.00046 0.47247
 O230 O 0.95429 -0.00223 0.52770
 O231 O 1.00103 -0.04332 0.47095
 O232 O 0.99784 0.04315 0.52850
 O233 O 1.00066 -0.04462 0.52583
 O234 O 0.99817 0.04531 0.47333
 H235 H 1.06201 0.00307 0.45888
 H236 H 0.99716 0.06066 0.54304
 H237 H 0.93716 -0.00059 0.45817
 H238 H 1.00116 -0.06307 0.53920
 H239 H 1.02296 0.09553 0.48836
 H240 H 0.97025 0.09381 0.48788
 H241 H 0.90334 0.02230 0.51436
 H242 H 0.90494 -0.02998 0.51378
 H243 H 0.97609 -0.09457 0.48301
 H244 H 1.02813 -0.09292 0.48570
 H245 H 1.09553 -0.02389 0.51568
 H246 H 1.09370 0.02839 0.51578
 C247 C 1.14146 0.18673 0.26141
 C248 C 1.12758 0.17492 0.28841
 C249 C 1.12919 0.14391 0.29516
 C250 C 1.14588 0.12483 0.27512
 C251 C 1.16042 0.13664 0.24849
 C252 C 1.15807 0.16779 0.24074
 N253 N 1.11329 0.13222 0.32207
 N254 N 1.10720 0.10405 0.32478
 C255 C 1.09141 0.09157 0.35133
 C256 C 1.07933 0.06225 0.34899
 C257 C 1.06363 0.04921 0.37419
 C258 C 1.06028 0.06507 0.40259
 C259 C 1.07277 0.09444 0.40513
 C260 C 1.08797 0.10776 0.37954
 H261 H 1.13986 0.21097 0.25745
 H262 H 1.11505 0.18994 0.30385
 H263 H 1.14753 0.10072 0.27994
 H264 H 1.17209 0.12083 0.23322
 H265 H 1.08195 0.04953 0.32744
 H266 H 1.05459 0.02640 0.37160
 H267 H 1.07055 0.10713 0.42674
 H268 H 1.09733 0.13044 0.38189
 C269 C 0.85983 -0.18056 0.25727
 C270 C 0.87355 -0.16871 0.28426
 C271 C 0.87258 -0.13758 0.29027
 C272 C 0.85661 -0.11839 0.26960
 C273 C 0.84222 -0.13021 0.24297
 C274 C 0.84408 -0.16150 0.23590
 N275 N 0.88831 -0.12591 0.31718
 N276 N 0.89504 -0.09788 0.31950
 C277 C 0.91051 -0.08574 0.34633
 C278 C 0.92294 -0.05650 0.34441
 C279 C 0.93813 -0.04385 0.37012
 C280 C 0.94058 -0.06010 0.39849
 C281 C 0.92792 -0.08943 0.40046
 C282 C 0.91321 -0.10229 0.37447
 H283 H 0.86093 -0.20487 0.25381
 H284 H 0.88548 -0.18379 0.30027
 H285 H 0.85545 -0.09419 0.27391
 H286 H 0.83121 -0.11434 0.22714
 H287 H 0.92092 -0.04354 0.32285
 H288 H 0.94742 -0.02109 0.36798
 H289 H 0.92952 -0.10246 0.42201
 H290 H 0.90362 -0.12491 0.37649
 C291 C 0.85456 0.17586 0.74124
 C292 C 0.86736 0.16359 0.71404
 C293 C 0.86644 0.13232 0.70876
 C294 C 0.85151 0.11338 0.73047
 C295 C 0.83797 0.12562 0.75731
 C296 C 0.83968 0.15710 0.76355
 N297 N 0.88120 0.12029 0.68151
 N298 N 0.88876 0.09244 0.67980
 C299 C 0.90343 0.08008 0.65267
 C300 C 0.91897 0.05245 0.65547
 C301 C 0.93428 0.04013 0.62972
 C302 C 0.93353 0.05485 0.60039
 C303 C 0.91741 0.08236 0.59747
 C304 C 0.90272 0.09506 0.62349
 H305 H 0.85555 0.20026 0.74409
 H306 H 0.87854 0.17846 0.69727
 H307 H 0.85044 0.08908 0.72675
 H308 H 0.82763 0.11000 0.77388
 H309 H 0.91967 0.04072 0.67785
 H310 H 0.94659 0.01902 0.63275
 H311 H 0.91658 0.09431 0.57522
 H312 H 0.89068 0.11640 0.62079
 C313 C 1.18701 -0.14643 0.73429
 C314 C 1.17410 -0.13172 0.70834
 C315 C 1.14238 -0.13188 0.70369
 C316 C 1.12356 -0.14769 0.72491
 C317 C 1.13641 -0.16301 0.75055
 C318 C 1.16843 -0.16235 0.75604
 N319 N 1.12986 -0.11573 0.67740
 N320 N 1.10142 -0.10943 0.67553
 C321 C 1.08863 -0.09351 0.64924
 C322 C 1.05893 -0.08178 0.65171
 C323 C 1.04575 -0.06597 0.62663
 C324 C 1.06191 -0.06215 0.59832
 C325 C 1.09163 -0.07427 0.59572
 C326 C 1.10502 -0.08961 0.62109
 H327 H 1.21176 -0.14614 0.73643
 H328 H 1.18888 -0.11988 0.69193
 H329 H 1.09890 -0.14817 0.72172
 H330 H 1.12088 -0.17406 0.76678
 H331 H 1.04605 -0.08474 0.67324
 H332 H 1.02268 -0.05718 0.62923
 H333 H 1.10458 -0.07165 0.57419
 H334 H 1.12798 -0.09866 0.61860
 C335 C 0.26064 1.18465 1.14349
 C336 C 0.28736 1.17241 1.13062
 C337 C 0.29340 1.14138 1.13314
 C338 C 0.27292 1.12271 1.14981
 C339 C 0.24652 1.13499 1.16345
 C340 C 0.23952 1.16616 1.16003
 N341 N 0.32015 1.12932 1.11817
 N342 N 0.32266 1.10114 1.11215
 C343 C 0.34920 1.08870 1.09717
 C344 C 0.34715 1.05968 1.08412
 C345 C 0.37234 1.04691 1.06889
 C346 C 0.40037 1.06270 1.06709
 C347 C 0.40259 1.09171 1.08061
 C348 C 0.37706 1.10479 1.09527
 H349 H 0.25723 1.20891 1.14124
 H350 H 0.30317 1.18710 1.11813
 H351 H 0.27724 1.09859 1.15216
 H352 H 0.23092 1.11957 1.17520
 H353 H 0.32584 1.04704 1.08550
 H354 H 0.37002 1.02442 1.05897
 H355 H 0.42391 1.10437 1.07955
 H356 H 0.37917 1.12724 1.10536
 C357 C 0.27433 0.81594 0.84681
 C358 C 0.29975 0.82907 0.86168
 C359 C 0.29995 0.86010 0.86882
 C360 C 0.27451 0.87804 0.86057
 C361 C 0.24930 0.86504 0.84540
 C362 C 0.24893 0.83387 0.83844
 N363 N 0.32611 0.87290 0.88437
 N364 N 0.32576 0.89983 0.89514
 C365 C 0.35173 0.91326 0.91039
 C366 C 0.34804 0.94117 0.92548
 C367 C 0.37280 0.95498 0.94067
 C368 C 0.40193 0.94122 0.94062
 C369 C 0.40566 0.91327 0.92519
 C370 C 0.38071 0.89929 0.91034
 H371 H 0.27462 0.79189 0.84156
 H372 H 0.31923 0.81501 0.86787
 H373 H 0.27412 0.90209 0.86577
 H374 H 0.22985 0.87927 0.83950
 H375 H 0.32582 0.95218 0.92559
 H376 H 0.36918 0.97656 0.95221
 H377 H 0.42776 0.90206 0.92484
 H378 H 0.38412 0.87774 0.89869
 C379 C 0.76703 0.85175 1.11867
 C380 C 0.74197 0.86626 1.10474
 C381 C 0.71562 0.87258 1.12227
 C382 C 0.71461 0.86440 1.15417
 C383 C 0.73986 0.85024 1.16827
 C384 C 0.76626 0.84373 1.15061
 N385 N 0.69058 0.88775 1.10717
 N386 N 0.66440 0.89083 1.12000
 C387 C 0.63998 0.90666 1.10445
 C388 C 0.61018 0.90491 1.11659
 C389 C 0.58589 0.91977 1.10147
 C390 C 0.59121 0.93704 1.07416
 C391 C 0.62130 0.93912 1.06239
 C392 C 0.64540 0.92395 1.07724
 H393 H 0.78723 0.84725 1.10465
 H394 H 0.74304 0.87258 1.08017
 H395 H 0.69450 0.86920 1.16821
 H396 H 0.73870 0.84411 1.19289
 H397 H 0.60573 0.89174 1.13762
 H398 H 0.56302 0.91785 1.11123
 H399 H 0.62627 0.95226 1.04148
 H400 H 0.66827 0.92587 1.06752
 C401 C 0.73707 1.17416 0.85720
 C402 C 0.71064 1.16193 0.87085
 C403 C 0.70833 1.13068 0.87639
 C404 C 0.73264 1.11155 0.86756
 C405 C 0.75893 1.12371 0.85347
 C406 C 0.76146 1.15516 0.84841
 N407 N 0.68119 1.11904 0.89107
 N408 N 0.67948 1.09188 0.90124
 C409 C 0.65228 1.08022 0.91580
 C410 C 0.65365 1.05220 0.93128
 C411 C 0.62770 1.04041 0.94623
 C412 C 0.59972 1.05631 0.94549
 C413 C 0.59826 1.08425 0.92951
 C414 C 0.62440 1.09624 0.91497
 H415 H 0.73838 1.19844 0.85324
 H416 H 0.69202 1.17687 0.87746
 H417 H 0.73129 1.08727 0.87149
 H418 H 0.77750 1.10865 0.84699
 H419 H 0.67498 1.03960 0.93197
 H420 H 0.62947 1.01867 0.95810
 H421 H 0.57704 1.09701 0.92859
 H422 H 0.62277 1.11791 0.90298
 C423 C 0.14904 0.23700 0.11912
 C424 C 0.13375 0.25976 0.10238
 C425 C 0.12406 0.28619 0.11754
 C426 C 0.12947 0.28948 0.14992
 C427 C 0.14444 0.26655 0.16677
 C428 C 0.15453 0.24020 0.15147
 N429 N 0.10897 0.30935 0.09960
 N430 N 0.10342 0.33540 0.11109
 C431 C 0.08831 0.35886 0.09363
 C432 C 0.08718 0.38802 0.10640
 C433 C 0.07301 0.41165 0.09004
 C434 C 0.05925 0.40641 0.06065
 C435 C 0.06007 0.37697 0.04795
 C436 C 0.07467 0.35337 0.06424
 H437 H 0.15626 0.21670 0.10688
 H438 H 0.12962 0.25691 0.07748
 H439 H 0.12208 0.30967 0.16220
 H440 H 0.14849 0.26955 0.19167
 H441 H 0.09755 0.39247 0.12906
 H442 H 0.07260 0.43400 0.10060
 H443 H 0.04974 0.37227 0.02533
 H444 H 0.07518 0.33091 0.05396
 C445 C -0.14702 0.23076 -0.11858
 C446 C -0.13151 0.25468 -0.10400
 C447 C -0.12403 0.28094 -0.12093
 C448 C -0.13193 0.28294 -0.15289
 C449 C -0.14704 0.25884 -0.16762
 C450 C -0.15483 0.23261 -0.15054
 N451 N -0.10840 0.30515 -0.10522
 N452 N -0.10542 0.33130 -0.11766
 C453 C -0.08961 0.35552 -0.10219
 C454 C -0.09262 0.38502 -0.11398
 C455 C -0.07817 0.40934 -0.09900
 C456 C -0.05998 0.40444 -0.07214
 C457 C -0.05635 0.37460 -0.06082
 C458 C -0.07127 0.35036 -0.07554
 H459 H -0.15250 0.21060 -0.10504
 H460 H -0.12545 0.25286 -0.07940
 H461 H -0.12625 0.30298 -0.16649
 H462 H -0.15291 0.26076 -0.19226
 H463 H -0.10658 0.38923 -0.13459
 H464 H -0.08127 0.43197 -0.10851
 H465 H -0.04221 0.36998 -0.04047
 H466 H -0.06837 0.32764 -0.06621
 C467 C 0.18467 0.72903 -0.15694
 C468 C 0.17113 0.70324 -0.14358
 C469 C 0.13966 0.70270 -0.13707
 C470 C 0.12163 0.72818 -0.14459
 C471 C 0.13508 0.75385 -0.15831
 C472 C 0.16678 0.75460 -0.16439
 N473 N 0.12666 0.67621 -0.12262
 N474 N 0.09926 0.67578 -0.11230
 C475 C 0.08609 0.64939 -0.09784
 C476 C 0.05757 0.65198 -0.08306
 C477 C 0.04427 0.62689 -0.06818
 C478 C 0.05915 0.59855 -0.06822
 C479 C 0.08761 0.59587 -0.08349
 C480 C 0.10109 0.62114 -0.09803
 H481 H 0.20910 0.72894 -0.16166
 H482 H 0.18525 0.68374 -0.13797
 H483 H 0.09722 0.72828 -0.13986
 H484 H 0.12084 0.77335 -0.16363
 H485 H 0.04575 0.67360 -0.08285
 H486 H 0.02219 0.62965 -0.05687
 H487 H 0.09964 0.57437 -0.08388
 H488 H 0.12311 0.61856 -0.10945
 C489 C -0.11920 0.76736 0.14207
 C490 C -0.10413 0.74369 0.12675
 C491 C -0.12032 0.71775 0.11752
 C492 C -0.15207 0.71591 0.12320
 C493 C -0.16728 0.73982 0.13805
 C494 C -0.15089 0.76560 0.14784
 N495 N -0.10400 0.69365 0.10251
 N496 N -0.11578 0.66746 0.09871
 C497 C -0.09948 0.64348 0.08347
 C498 C -0.11094 0.61386 0.08550
 C499 C -0.09529 0.58985 0.07137
 C500 C -0.06807 0.59520 0.05448
 C501 C -0.05690 0.62511 0.05203
 C502 C -0.07233 0.64902 0.06661
 H503 H -0.10620 0.78718 0.14917
 H504 H -0.07970 0.74539 0.12238
 H505 H -0.16508 0.69612 0.11608
 H506 H -0.19172 0.73802 0.14236
 H507 H -0.13190 0.60934 0.09836
 H508 H -0.10466 0.56713 0.07352
 H509 H -0.03616 0.63005 0.03901
 H510 H -0.06316 0.67181 0.06453
 C511 C 1.18069 0.14316 0.74046
 C512 C 1.16801 0.12867 0.71437
 C513 C 1.13659 0.13051 0.70825
 C514 C 1.11794 0.14807 0.72797
 C515 C 1.13070 0.16336 0.75369
 C516 C 1.16228 0.16067 0.76084
 N517 N 1.12432 0.11432 0.68194
 N518 N 1.09591 0.10793 0.67953
 C519 C 1.08386 0.09194 0.65296
 C520 C 1.05462 0.07886 0.65498
 C521 C 1.04229 0.06296 0.62954
 C522 C 1.05879 0.06049 0.60130
 C523 C 1.08804 0.07387 0.59920
 C524 C 1.10062 0.08922 0.62492
 H525 H 1.20525 0.14133 0.74387
 H526 H 1.18269 0.11553 0.69907
 H527 H 1.09354 0.14996 0.72352
 H528 H 1.11533 0.17592 0.76877
 H529 H 1.04144 0.08085 0.67640
 H530 H 1.01956 0.05316 0.63173
 H531 H 1.10124 0.07231 0.57773
 H532 H 1.12322 0.09929 0.62276
 C533 C 0.84023 -0.11923 0.76675
 C534 C 0.85524 -0.10380 0.74255
 C535 C 0.87186 -0.11974 0.72001
 C536 C 0.87397 -0.15147 0.72223
 C537 C 0.85966 -0.16699 0.74691
 C538 C 0.84222 -0.15118 0.76952
 N539 N 0.88652 -0.10315 0.69529
 N540 N 0.89473 -0.11576 0.66982
 C541 C 0.90975 -0.09899 0.64544
 C542 C 0.90947 -0.11045 0.61487
 C543 C 0.92320 -0.09416 0.59042
 C544 C 0.93814 -0.06640 0.59636
 C545 C 0.93911 -0.05537 0.62728
 C546 C 0.92469 -0.07132 0.65157
 H547 H 0.82827 -0.10575 0.78404
 H548 H 0.85374 -0.07927 0.74124
 H549 H 0.88683 -0.16424 0.70501
 H550 H 0.86136 -0.19152 0.74738
 H551 H 0.89816 -0.13183 0.60990
 H552 H 0.92239 -0.10347 0.56694
 H553 H 0.95082 -0.03435 0.63270
 H554 H 0.92550 -0.06224 0.67515
 C555 C 1.17909 -0.14724 0.26207
 C556 C 1.16668 -0.13225 0.28794
 C557 C 1.13501 -0.13181 0.29278
 C558 C 1.11571 -0.14733 0.27184
 C559 C 1.12807 -0.16301 0.24629
 C560 C 1.16004 -0.16293 0.24061
 N561 N 1.12313 -0.11553 0.31914
 N562 N 1.09497 -0.10816 0.32118
 C563 C 1.08316 -0.09222 0.34781
 C564 C 1.05425 -0.07859 0.34566
 C565 C 1.04217 -0.06268 0.37114
 C566 C 1.05862 -0.06072 0.39950
 C567 C 1.08750 -0.07472 0.40175
 C568 C 1.09983 -0.09012 0.37601
 H569 H 1.20382 -0.14740 0.25979
 H570 H 1.18182 -0.12066 0.30417
 H571 H 1.09108 -0.14737 0.27524
 H572 H 1.11224 -0.17393 0.23029
 H573 H 1.04115 -0.08014 0.32409
 H574 H 1.01970 -0.05238 0.36883
 H575 H 1.10066 -0.07355 0.42331
 H576 H 1.12217 -0.10065 0.37826
 C577 C 0.88164 0.16183 0.23209
 C578 C 0.89836 0.14711 0.25567
 C579 C 0.88329 0.13043 0.27896
 C580 C 0.85118 0.12801 0.27808
 C581 C 0.83441 0.14214 0.25420
 C582 C 0.84926 0.15960 0.23080
 N583 N 0.90094 0.11629 0.30334
 N584 N 0.88837 0.10684 0.32848
 C585 C 0.90526 0.09227 0.35309
 C586 C 0.89132 0.08886 0.38241
 C587 C 0.90699 0.07487 0.40709
 C588 C 0.93677 0.06344 0.40264
 C589 C 0.95067 0.06651 0.37301
 C590 C 0.93513 0.08110 0.34845
 H591 H 0.89445 0.17390 0.21422
 H592 H 0.92316 0.14890 0.25594
 H593 H 0.83900 0.11519 0.29588
 H594 H 0.80966 0.14037 0.25515
 H595 H 0.86828 0.09729 0.38618
 H596 H 0.89558 0.07258 0.42956
 H597 H 0.97361 0.05791 0.36895
 H598 H 0.94625 0.08335 0.32585
 C599 C 0.18453 0.26910 -0.15340
 C600 C 0.17293 0.29599 -0.14059
 C601 C 0.14143 0.29918 -0.13509
 C602 C 0.12145 0.27536 -0.14340
 C603 C 0.13296 0.24866 -0.15661
 C604 C 0.16465 0.24512 -0.16140
 N605 N 0.13029 0.32634 -0.12047
 N606 N 0.10301 0.32792 -0.10996
 C607 C 0.09073 0.35438 -0.09509
 C608 C 0.06223 0.35195 -0.08034
 C609 C 0.04923 0.37696 -0.06544
 C610 C 0.06434 0.40525 -0.06533
 C611 C 0.09296 0.40782 -0.08041
 C612 C 0.10621 0.38247 -0.09501
 H613 H 0.20903 0.26703 -0.15710
 H614 H 0.18858 0.31415 -0.13438
 H615 H 0.09697 0.27729 -0.13954
 H616 H 0.11718 0.23046 -0.16236
 H617 H 0.05006 0.33047 -0.08031
 H618 H 0.02702 0.37415 -0.05438
 H619 H 0.10512 0.42930 -0.08076
 H620 H 0.12828 0.38487 -0.10641
 C621 C -0.15367 0.26919 0.17455
 C622 C -0.14147 0.29576 0.16150
 C623 C -0.13679 0.29803 0.12908
 C624 C -0.14539 0.27371 0.10961
 C625 C -0.15813 0.24735 0.12259
 C626 C -0.16197 0.24473 0.15520
 N627 N -0.12270 0.32488 0.11660
 N628 N -0.11173 0.32565 0.08893
 C629 C -0.09742 0.35224 0.07616
 C630 C -0.07995 0.34945 0.04882
 C631 C -0.06480 0.37464 0.03621
 C632 C -0.06744 0.40333 0.05037
 C633 C -0.08551 0.40623 0.07754
 C634 C -0.10018 0.38081 0.09051
 H635 H -0.15663 0.26769 0.19975
 H636 H -0.13501 0.31437 0.17672
 H637 H -0.14215 0.27503 0.08445
 H638 H -0.16427 0.22869 0.10728
 H639 H -0.07767 0.32754 0.03756
 H640 H -0.05109 0.37164 0.01530
 H641 H -0.08788 0.42800 0.08904
 H642 H -0.11370 0.38350 0.11163
 C643 C -0.16145 0.76159 -0.11865
 C644 C -0.14677 0.73694 -0.10442
 C645 C -0.12960 0.71660 -0.12229
 C646 C -0.12694 0.72128 -0.15476
 C647 C -0.14108 0.74627 -0.16904
 C648 C -0.15873 0.76695 -0.15128
 N649 N -0.11473 0.69175 -0.10678
 N650 N -0.10367 0.66927 -0.12167
 C651 C -0.08833 0.64494 -0.10573
 C652 C -0.08371 0.61743 -0.12139
 C653 C -0.06957 0.59302 -0.10605
 C654 C -0.05919 0.59607 -0.07496
 C655 C -0.06324 0.62396 -0.05953
 C656 C -0.07791 0.64811 -0.07467
 H657 H -0.17366 0.77715 -0.10355
 H658 H -0.14873 0.73371 -0.07929
 H659 H -0.11375 0.70577 -0.16906
 H660 H -0.13897 0.74856 -0.19425
 H661 H -0.09153 0.61476 -0.14537
 H662 H -0.06660 0.57184 -0.11855
 H663 H -0.05560 0.62694 -0.03552
 H664 H -0.08103 0.66924 -0.06216
 C665 C 0.17519 0.72672 0.15718
 C666 C 0.16166 0.70087 0.14409
 C667 C 0.13051 0.70082 0.13604
 C668 C 0.11271 0.72679 0.14199
 C669 C 0.12611 0.75250 0.15555
 C670 C 0.15756 0.75281 0.16293
 N671 N 0.11767 0.67439 0.12145
 N672 N 0.09128 0.67470 0.10858
 C673 C 0.07840 0.64841 0.09380
 C674 C 0.05227 0.65183 0.07502
 C675 C 0.03968 0.62689 0.05938
 C676 C 0.05270 0.59784 0.06275
 C677 C 0.07863 0.59434 0.08214
 C678 C 0.09153 0.61945 0.09737
 H679 H 0.19942 0.72635 0.16292
 H680 H 0.17560 0.68099 0.13969
 H681 H 0.08853 0.72724 0.13610
 H682 H 0.11209 0.77240 0.15962
 H683 H 0.04192 0.67402 0.07211
 H684 H 0.01972 0.63038 0.04465
 H685 H 0.08927 0.57230 0.08516
 H686 H 0.11168 0.61623 0.11189
 C687 C 0.23419 1.12733 0.85551
 C688 C 0.25735 1.11172 0.87147
 C689 C 0.28468 1.12647 0.87956
 C690 C 0.28840 1.15741 0.87207
 C691 C 0.26502 1.17319 0.85644
 C692 C 0.23785 1.15816 0.84771
 N693 N 0.30824 1.10941 0.89509
 N694 N 0.33513 1.11994 0.89943
 C695 C 0.35855 1.10262 0.91490
 C696 C 0.38868 1.11365 0.91493
 C697 C 0.41221 1.09701 0.92918
 C698 C 0.40589 1.06911 0.94406
 C699 C 0.37549 1.05827 0.94437
 C700 C 0.35204 1.07479 0.92976
 H701 H 0.21327 1.11536 0.84942
 H702 H 0.25416 1.08795 0.87724
 H703 H 0.30930 1.16933 0.87825
 H704 H 0.26835 1.19694 0.85064
 H705 H 0.39397 1.13508 0.90361
 H706 H 0.43532 1.10611 0.92870
 H707 H 0.36985 1.03689 0.95562
 H708 H 0.32888 1.06583 0.93016
 C709 C 0.26602 0.81336 1.15178
 C710 C 0.29179 0.82617 1.13726
 C711 C 0.29195 0.85691 1.12869
 C712 C 0.26605 0.87486 1.13503
 C713 C 0.24051 0.86221 1.14994
 C714 C 0.24025 0.83136 1.15845
 N715 N 0.31873 0.86956 1.11415
 N716 N 0.31840 0.89582 1.10155
 C717 C 0.34514 0.90930 1.08781
 C718 C 0.34185 0.93593 1.07014
 C719 C 0.36751 0.95015 1.05701
 C720 C 0.39709 0.93822 1.06184
 C721 C 0.40030 0.91137 1.07955
 C722 C 0.37453 0.89693 1.09230
 H723 H 0.26635 0.78955 1.15826
 H724 H 0.31165 0.81213 1.13258
 H725 H 0.26566 0.89871 1.12876
 H726 H 0.22079 0.87645 1.15458
 H727 H 0.31931 0.94568 1.06655
 H728 H 0.36416 0.97065 1.04335
 H729 H 0.42272 0.90148 1.08358
 H730 H 0.37762 0.87641 1.10600
 C731 C 0.73231 1.18058 1.15487
 C732 C 0.70512 1.16738 1.14387
 C733 C 0.70378 1.13622 1.13754
 C734 C 0.73000 1.11825 1.14259
 C735 C 0.75708 1.13137 1.15378
 C736 C 0.75855 1.16267 1.15999
 N737 N 0.67586 1.12341 1.12555
 N738 N 0.67437 1.09582 1.11684
 C739 C 0.64698 1.08248 1.10434
 C740 C 0.64877 1.05351 1.09115
 C741 C 0.62304 1.04032 1.07715
 C742 C 0.59483 1.05580 1.07647
 C743 C 0.59276 1.08451 1.09068
 C744 C 0.61872 1.09788 1.10434
 H745 H 0.73277 1.20472 1.15971
 H746 H 0.68510 1.18147 1.14008
 H747 H 0.72961 1.09411 1.13782
 H748 H 0.77706 1.11710 1.15716
 H749 H 0.67038 1.04138 1.09114
 H750 H 0.62530 1.01806 1.06663
 H751 H 0.57135 1.09698 1.09040
 H752 H 0.61680 1.12028 1.11456
 C753 C 0.73243 0.84942 0.82610
 C754 C 0.70548 0.86212 0.83802
 C755 C 0.70311 0.86901 0.86996
 C756 C 0.72775 0.86218 0.89016
 C757 C 0.75452 0.84904 0.87835
 C758 C 0.75724 0.84294 0.84615
 N759 N 0.67586 0.88346 0.88126
 N760 N 0.67491 0.89536 0.90842
 C761 C 0.64813 0.91000 0.92049
 C762 C 0.65079 0.92650 0.94831
 C763 C 0.62537 0.94126 0.96091
 C764 C 0.59652 0.93939 0.94612
 C765 C 0.59381 0.92264 0.91818
 C766 C 0.61950 0.90819 0.90532
 H767 H 0.73395 0.84463 0.80122
 H768 H 0.68663 0.86717 0.82225
 H769 H 0.72638 0.86711 0.91500
 H770 H 0.77339 0.84433 0.89420
 H771 H 0.67274 0.92804 0.96018
 H772 H 0.62832 0.95389 0.98247
 H773 H 0.57194 0.92082 0.90621
 H774 H 0.61695 0.89545 0.88377
   
