data_POSCAR
  _audit_creation_date              2014-09-24
  _audit_creation_method            'ToBaCCo'
  _symmetry_space_group_name_H-M    'P1'
  _symmetry_Int_Tables_number       1
  _symmetry_cell_setting            triclinic
  loop_
  _symmetry_equiv_pos_as_xyz
 x,y,z
_cell_length_a 27.7821
_cell_length_b 27.7687
_cell_length_c 27.8277
_cell_angle_alpha 90.026600
_cell_angle_beta 89.984400
_cell_angle_gamma 90.044700
loop_
  _atom_site_label
  _atom_site_type_symbol
  _atom_site_fract_x
  _atom_site_fract_y
  _atom_site_fract_z
C1 C 0.17168 0.21722 0.23982
 N2 N 0.20215 0.17963 0.24698
 C3 C 0.23972 0.17175 0.21673
 N4 N 0.24665 0.20198 0.17897
 C5 C 0.21654 0.23972 0.17127
 N6 N 0.17914 0.24708 0.20187
 C7 C 0.67119 0.71764 0.74008
 N8 N 0.67903 0.74791 0.70254
 C9 C 0.71664 0.74077 0.67213
 N10 N 0.74655 0.70282 0.67961
 C11 C 0.73924 0.67220 0.71699
 N12 N 0.70147 0.67988 0.74704
 C13 C 0.32659 0.78387 0.74051
 N14 N 0.29593 0.82140 0.74727
 C15 C 0.25846 0.82899 0.71677
 N16 N 0.25194 0.79831 0.67921
 C17 C 0.28214 0.76056 0.67199
 N18 N 0.31941 0.75363 0.70279
 C19 C 0.82919 0.28283 0.24105
 N20 N 0.82156 0.25238 0.20350
 C21 C 0.78409 0.25924 0.17288
 N22 N 0.75394 0.29703 0.18014
 C23 C 0.76089 0.32779 0.21746
 N24 N 0.79859 0.32046 0.24766
 C25 C 0.82909 0.71678 0.26002
 N26 N 0.82180 0.74699 0.29776
 C27 C 0.78439 0.73998 0.32845
 N28 N 0.75411 0.70226 0.32104
 C29 C 0.76087 0.67173 0.28348
 N30 N 0.79844 0.67926 0.25315
 C31 C 0.32835 0.21546 -0.24165
 N32 N 0.29757 0.17792 -0.24840
 C33 C 0.25981 0.17043 -0.21821
 N34 N 0.25311 0.20115 -0.18075
 C35 C 0.28336 0.23890 -0.17343
 N36 N 0.32083 0.24580 -0.20405
 C37 C 0.67236 0.28295 -0.23926
 N38 N 0.67988 0.25294 -0.20148
 C39 C 0.71730 0.26023 -0.17092
 N40 N 0.74735 0.29813 -0.17846
 C41 C 0.74049 0.32856 -0.21613
 N42 N 0.70285 0.32057 -0.24635
 C43 C 0.17280 0.78330 0.25946
 N44 N 0.17996 0.75335 0.29735
 C45 C 0.21723 0.76054 0.32812
 N46 N 0.24749 0.79828 0.32068
 C47 C 0.24097 0.82867 0.28290
 N48 N 0.20347 0.82078 0.25247
 C49 C 0.46682 0.42142 0.49063
 N50 N 0.49696 0.42889 0.45288
 C51 C 0.48988 0.46634 0.42230
 N52 N 0.45213 0.49649 0.42978
 C53 C 0.42163 0.48955 0.46732
 N54 N 0.42923 0.45193 0.49758
 C55 C -0.03290 -0.07751 0.98998
 N56 N -0.00289 -0.06996 0.95219
 C57 C -0.01006 -0.03245 0.92172
 N58 N -0.04783 -0.00234 0.92936
 C59 C -0.07826 -0.00922 0.96705
 N60 N -0.07040 -0.04696 0.99718
 C61 C 1.03359 0.57846 0.98998
 N62 N 1.00296 0.57077 0.95263
 C63 C 1.00978 0.53329 0.92192
 N64 N 1.04765 0.50319 0.92895
 C65 C 1.07857 0.51022 0.96609
 N66 N 1.07132 0.54792 0.99633
 C67 C 0.53418 0.07730 0.48974
 N68 N 0.57171 0.04671 0.49658
 C69 C 0.57943 0.00916 0.46616
 N70 N 0.54883 0.00248 0.42857
 C71 C 0.51105 0.03263 0.42128
 N72 N 0.50402 0.06997 0.45202
 C73 C -0.03365 0.07845 0.50952
 N74 N -0.07114 0.04779 0.50250
 C75 C -0.07897 0.01018 0.53282
 N76 N -0.04852 0.00355 0.57051
 C77 C -0.01076 0.03376 0.57797
 N78 N -0.00362 0.07114 0.54732
 C79 C 0.46682 0.57860 0.01022
 N80 N 0.49700 0.57108 0.04789
 C81 C 0.49017 0.53327 0.07813
 N82 N 0.45266 0.50283 0.07035
 C83 C 0.42216 0.50983 0.03285
 N84 N 0.42950 0.54780 0.00297
 C85 C 0.53264 -0.07856 0.00922
 N86 N 0.50232 -0.07076 0.04680
 C87 C 0.50962 -0.03349 0.07760
 N88 N 0.54772 -0.00365 0.07047
 C89 C 0.57838 -0.01078 0.03310
 N90 N 0.57061 -0.04831 0.00274
 C91 C 1.03165 0.42135 0.50925
 N92 N 1.00137 0.42896 0.54693
 C93 C 1.00850 0.46635 0.57766
 N94 N 1.04636 0.49645 0.57036
 C95 C 1.07695 0.48952 0.53291
 N96 N 1.06936 0.45189 0.50262
 C97 C 0.45022 0.02127 0.18719
 H98 H 0.45409 0.05234 0.21035
 C99 C 0.48159 0.01484 0.14851
 H100 H 0.50944 0.04137 0.14212
 C101 C 0.40939 -0.05121 0.16815
 H102 H 0.38162 -0.07719 0.17626
 C103 C 0.43983 -0.05897 0.12896
 H104 H 0.43481 -0.09092 0.10721
 N105 N 0.41481 -0.01136 0.19606
 C106 C 0.29946 0.06258 0.27220
 H107 H 0.29590 0.03980 0.30354
 C108 C 0.26806 0.10126 0.26559
 H109 H 0.24053 0.10809 0.29227
 C110 C 0.33943 0.08058 0.19916
 H111 H 0.36682 0.07205 0.17299
 C112 C 0.30897 0.11973 0.19120
 H113 H 0.31364 0.14104 0.15896
 Zn114 Zn 0.37478 -0.00070 0.25004
 N115 N 0.33450 0.05322 0.23939
 C116 C 0.41041 0.05023 0.33128
 N117 N 0.41535 0.01014 0.30362
 C118 C 0.45076 -0.02248 0.31233
 C119 C 0.48249 -0.01587 0.35067
 C120 C 0.44121 0.05817 0.37013
 C121 C 0.29852 -0.06300 0.22895
 C122 C 0.26693 -0.10156 0.23554
 C123 C 0.31009 -0.12247 0.30797
 C124 C 0.34055 -0.08322 0.30014
 N125 N 0.33458 -0.05472 0.26089
 H126 H 0.38274 0.07627 0.32323
 H127 H 0.45435 -0.05367 0.28930
 H128 H 0.51028 -0.04244 0.35699
 H129 H 0.43651 0.09027 0.39172
 H130 H 0.29424 -0.03939 0.19833
 H131 H 0.23859 -0.10715 0.20940
 H132 H 0.31590 -0.14457 0.33949
 H133 H 0.36884 -0.07558 0.32562
 C134 C 0.27266 0.13054 0.22467
 C135 C 0.47657 -0.02571 0.11871
 C136 C 0.27242 -0.13222 0.27549
 C137 C 0.47787 0.02486 0.38029
 C138 C 0.04855 -0.02080 0.68762
 H139 H 0.04443 -0.05163 0.71103
 C140 C 0.01695 -0.01421 0.64919
 H141 H -0.01130 -0.04041 0.64320
 C142 C 0.09022 0.05096 0.66775
 H143 H 0.11845 0.07658 0.67544
 C144 C 0.05953 0.05889 0.62882
 H145 H 0.06484 0.09059 0.60680
 N146 N 0.08452 0.01137 0.69593
 C147 C 0.20312 -0.06241 0.77255
 H148 H 0.20755 -0.03871 0.80312
 C149 C 0.23328 -0.09938 0.76609
 H150 H 0.26187 -0.10520 0.79188
 C151 C 0.15892 -0.08098 0.70140
 H152 H 0.13070 -0.07333 0.67589
 C153 C 0.19084 -0.12256 0.69309
 H154 H 0.18443 -0.14464 0.66164
 Zn155 Zn 0.12496 0.00059 0.74957
 N156 N 0.16485 -0.05363 0.73893
 C157 C 0.09040 -0.04964 0.83141
 N158 N 0.08486 -0.00986 0.80348
 C159 C 0.04922 0.02252 0.81219
 C160 C 0.01776 0.01591 0.85076
 C161 C 0.05986 -0.05759 0.87047
 C162 C 0.20177 0.06218 0.72815
 C163 C 0.23364 0.10053 0.73468
 C164 C 0.19030 0.12219 0.80683
 C165 C 0.15959 0.08314 0.79910
 N166 N 0.16552 0.05437 0.76002
 H167 H 0.11834 -0.07542 0.82339
 H168 H 0.04522 0.05349 0.78896
 H169 H -0.01026 0.04225 0.85706
 H170 H 0.06501 -0.08946 0.89225
 H171 H 0.20599 0.03835 0.69768
 H172 H 0.26214 0.10576 0.70863
 H173 H 0.18450 0.14453 0.83822
 H174 H 0.13113 0.07588 0.82450
 C175 C 0.22709 -0.13188 0.72397
 C176 C 0.02228 0.02604 0.61907
 C177 C 0.22819 0.13145 0.77446
 C178 C 0.02291 -0.02457 0.88059
 C179 C 0.55004 0.47768 0.18697
 H180 H 0.54657 0.44620 0.20960
 C181 C 0.51866 0.48430 0.14837
 H182 H 0.49122 0.45747 0.14146
 C183 C 0.58980 0.55107 0.16926
 H184 H 0.61709 0.57738 0.17790
 C185 C 0.55934 0.55904 0.13017
 H186 H 0.56391 0.59142 0.10899
 N187 N 0.58498 0.51065 0.19643
 C188 C 0.70051 0.43688 0.27236
 H189 H 0.70385 0.45977 0.30366
 C190 C 0.73212 0.39837 0.26592
 H191 H 0.75960 0.39178 0.29270
 C192 C 0.66082 0.41843 0.19928
 H193 H 0.63346 0.42676 0.17303
 C194 C 0.69151 0.37941 0.19150
 H195 H 0.68705 0.35795 0.15931
 Zn196 Zn 0.62514 0.49972 0.25026
 N197 N 0.66550 0.44593 0.23946
 C198 C 0.58964 0.44847 0.33132
 N199 N 0.58481 0.48877 0.30399
 C200 C 0.54980 0.52167 0.31328
 C201 C 0.51835 0.51509 0.35186
 C202 C 0.55912 0.44056 0.37040
 C203 C 0.70050 0.56269 0.22834
 C204 C 0.73210 0.60125 0.23486
 C205 C 0.69137 0.62005 0.30927
 C206 C 0.66068 0.58100 0.30140
 N207 N 0.66544 0.55355 0.26119
 H208 H 0.61700 0.42222 0.32282
 H209 H 0.54634 0.55307 0.29054
 H210 H 0.49086 0.54187 0.35864
 H211 H 0.56371 0.40827 0.39171
 H212 H 0.70390 0.53984 0.19702
 H213 H 0.75963 0.60790 0.20813
 H214 H 0.68686 0.64146 0.34149
 H215 H 0.63327 0.57259 0.32760
 C216 C 0.72778 0.36892 0.22509
 C217 C 0.52315 0.52540 0.11925
 C218 C 0.72770 0.63063 0.27574
 C219 C 0.52286 0.47413 0.38114
 C220 C 0.94936 0.52114 0.68741
 H221 H 0.95329 0.55224 0.71051
 C222 C 0.98063 0.51465 0.64866
 H223 H 1.00846 0.54118 0.64218
 C224 C 0.90848 0.44865 0.66854
 H225 H 0.88069 0.42271 0.67673
 C226 C 0.93883 0.44083 0.62928
 H227 H 0.93376 0.40887 0.60755
 N228 N 0.91396 0.48854 0.69640
 C229 C 0.79845 0.56263 0.77220
 H230 H 0.79476 0.53979 0.80348
 C231 C 0.76716 0.60139 0.76560
 H232 H 0.73957 0.60821 0.79222
 C233 C 0.83872 0.58077 0.69936
 H234 H 0.86620 0.57227 0.67327
 C235 C 0.80837 0.62002 0.69142
 H236 H 0.81320 0.64143 0.65927
 Zn237 Zn 0.87388 0.49943 0.75037
 N238 N 0.83360 0.55331 0.73950
 C239 C 0.90910 0.55057 0.83180
 N240 N 0.91431 0.51055 0.80407
 C241 C 0.94979 0.47804 0.81287
 C242 C 0.98133 0.48470 0.85134
 C243 C 0.93975 0.55857 0.87079
 C244 C 0.79756 0.43700 0.72961
 C245 C 0.76606 0.39839 0.73636
 C246 C 0.80953 0.37766 0.80866
 C247 C 0.83987 0.41697 0.80069
 N248 N 0.83372 0.44541 0.76141
 H249 H 0.88136 0.57652 0.82371
 H250 H 0.95356 0.44689 0.78982
 H251 H 1.00921 0.45823 0.85768
 H252 H 0.93488 0.59062 0.89242
 H253 H 0.79314 0.46055 0.69896
 H254 H 0.73765 0.39269 0.71033
 H255 H 0.81550 0.35561 0.84019
 H256 H 0.86822 0.42469 0.82607
 C257 C 0.77199 0.63082 0.72480
 C258 C 0.97554 0.47408 0.61888
 C259 C 0.77178 0.36778 0.77632
 C260 C 0.97649 0.52538 0.88102
 C261 C 0.18772 0.44986 0.02070
 H262 H 0.21064 0.45323 0.05195
 C263 C 0.14926 0.48152 0.01431
 H264 H 0.14275 0.50907 0.04108
 C265 C 0.16909 0.41001 -0.05228
 H266 H 0.17732 0.38255 -0.07849
 C267 C 0.13011 0.44076 -0.06001
 H268 H 0.10858 0.43625 -0.09212
 N269 N 0.19664 0.41473 -0.01216
 C270 C 0.27185 0.29880 0.06177
 H271 H 0.30320 0.29512 0.03900
 C272 C 0.26521 0.26756 0.10051
 H273 H 0.29187 0.23999 0.10735
 C274 C 0.19888 0.33906 0.07982
 H275 H 0.17277 0.36652 0.07129
 C276 C 0.19091 0.30875 0.11904
 H277 H 0.15870 0.31359 0.14042
 Zn278 Zn 0.25028 0.37421 -0.00131
 N279 N 0.23912 0.33395 0.05244
 C280 C 0.33148 0.40947 0.05001
 N281 N 0.30420 0.41435 0.00973
 C282 C 0.31352 0.44948 -0.02300
 C283 C 0.35203 0.48107 -0.01623
 C284 C 0.37051 0.44013 0.05811
 C285 C 0.22815 0.29902 -0.06446
 C286 C 0.23464 0.26756 -0.10306
 C287 C 0.30929 0.30822 -0.12160
 C288 C 0.30146 0.33876 -0.08249
 N289 N 0.26114 0.33397 -0.05515
 H290 H 0.32295 0.38201 0.07611
 H291 H 0.29080 0.45299 -0.05437
 H292 H 0.35880 0.50869 -0.04284
 H293 H 0.39175 0.43554 0.09039
 H294 H 0.19674 0.29559 -0.04172
 H295 H 0.20780 0.24011 -0.10984
 H296 H 0.34159 0.31275 -0.14291
 H297 H 0.32777 0.36609 -0.07397
 C298 C 0.22435 0.27241 0.12988
 C299 C 0.11972 0.47712 -0.02644
 C300 C 0.27563 0.27200 -0.13234
 C301 C 0.38121 0.47657 0.02476
 C302 C 0.68812 0.04874 -0.02163
 H303 H 0.71101 0.04520 -0.05289
 C304 C 0.64936 0.01735 -0.01521
 H305 H 0.64261 -0.01016 -0.04195
 C306 C 0.66982 0.08875 0.05133
 H307 H 0.67825 0.11617 0.07752
 C308 C 0.63057 0.05829 0.05910
 H309 H 0.60908 0.06299 0.09122
 N310 N 0.69734 0.08383 0.01120
 C311 C 0.77275 0.20041 -0.06192
 H312 H 0.80397 0.20416 -0.03899
 C313 C 0.76600 0.23205 -0.10032
 H314 H 0.79247 0.25994 -0.10678
 C315 C 0.70013 0.15972 -0.08060
 H316 H 0.67417 0.13197 -0.07244
 C317 C 0.69205 0.19043 -0.11948
 H318 H 0.65993 0.18554 -0.14098
 Zn319 Zn 0.75121 0.12426 0.00051
 N320 N 0.74025 0.16486 -0.05306
 C321 C 0.83370 0.09033 -0.04971
 N322 N 0.80520 0.08416 -0.01047
 C323 C 0.81346 0.04796 0.02132
 C324 C 0.85199 0.01642 0.01457
 C325 C 0.87292 0.05995 -0.05767
 C326 C 0.72929 0.19957 0.06347
 C327 C 0.73574 0.23096 0.10212
 C328 C 0.80964 0.18945 0.12149
 C329 C 0.80184 0.15896 0.08232
 N330 N 0.76195 0.16426 0.05451
 H331 H 0.82607 0.11873 -0.07506
 H332 H 0.78986 0.04353 0.05193
 H333 H 0.85758 -0.01204 0.04058
 H334 H 0.89502 0.06594 -0.08918
 H335 H 0.69820 0.20335 0.04038
 H336 H 0.70918 0.25874 0.10858
 H337 H 0.84162 0.18455 0.14317
 H338 H 0.82783 0.13124 0.07413
 C339 C 0.72524 0.22720 -0.12983
 C340 C 0.61985 0.02200 0.02555
 C341 C 0.77635 0.22609 0.13182
 C342 C 0.88264 0.02214 -0.02537
 C343 C 0.18619 0.54966 0.47788
 H344 H 0.20902 0.54623 0.44656
 C345 C 0.14755 0.51814 0.48435
 H346 H 0.14082 0.49065 0.45757
 C347 C 0.16800 0.58944 0.55099
 H348 H 0.17647 0.61678 0.57726
 C349 C 0.12887 0.55884 0.55881
 H350 H 0.10748 0.56337 0.59102
 N351 N 0.19544 0.58467 0.51078
 C352 C 0.27184 0.70043 0.43735
 H353 H 0.30311 0.70384 0.46026
 C354 C 0.26552 0.73201 0.39883
 H355 H 0.29236 0.75951 0.39226
 C356 C 0.19870 0.66062 0.41882
 H357 H 0.17238 0.63323 0.42710
 C358 C 0.19104 0.69126 0.37980
 H359 H 0.15887 0.68671 0.35831
 Zn360 Zn 0.24941 0.62495 0.50010
 N361 N 0.23885 0.66537 0.44636
 C362 C 0.33073 0.58942 0.44926
 N363 N 0.30322 0.58460 0.48940
 C364 C 0.31236 0.54956 0.52227
 C365 C 0.35098 0.51807 0.51583
 C366 C 0.36984 0.55885 0.44148
 C367 C 0.22729 0.70029 0.56295
 C368 C 0.23372 0.73187 0.60146
 C369 C 0.30811 0.69108 0.62045
 C370 C 0.30034 0.66042 0.58143
 N371 N 0.26018 0.66522 0.55391
 H372 H 0.32235 0.61679 0.42304
 H373 H 0.28946 0.54611 0.55354
 H374 H 0.35764 0.49057 0.54257
 H375 H 0.39129 0.56343 0.40931
 H376 H 0.19601 0.70372 0.54005
 H377 H 0.20694 0.75941 0.60803
 H378 H 0.34029 0.68654 0.64193
 H379 H 0.32659 0.63301 0.57311
 C380 C 0.22472 0.72756 0.36933
 C381 C 0.11818 0.52257 0.52523
 C382 C 0.27454 0.72742 0.63092
 C383 C 0.38044 0.52257 0.47503
 C384 C 0.68777 0.95410 0.52253
 H385 H 0.71127 0.95865 0.55321
 C386 C 0.65083 0.98422 0.51581
 H387 H 0.64484 1.01290 0.54150
 C388 C 0.66965 0.90966 0.45139
 H389 H 0.67745 0.88135 0.42599
 C390 C 0.62810 0.94153 0.44280
 H391 H 0.60619 0.93501 0.41126
 N392 N 0.69676 0.91572 0.48905
 C393 C 0.77228 0.80008 0.56293
 H394 H 0.80333 0.79598 0.53981
 C395 C 0.76542 0.76865 0.60147
 H396 H 0.79164 0.74054 0.60783
 C397 C 0.70017 0.84146 0.58189
 H398 H 0.67451 0.86948 0.57378
 C399 C 0.69198 0.81095 0.62092
 H400 H 0.66003 0.81616 0.64259
 Zn401 Zn 0.75088 0.87580 0.50012
 N402 N 0.74003 0.83579 0.55408
 C403 C 0.83321 0.91038 0.55002
 N404 N 0.80467 0.91631 0.51080
 C405 C 0.81281 0.95244 0.47889
 C406 C 0.85127 0.98416 0.48549
 C407 C 0.87236 0.94095 0.55784
 C408 C 0.72980 0.79928 0.43817
 C409 C 0.73642 0.76772 0.39969
 C410 C 0.80954 0.81028 0.37941
 C411 C 0.80158 0.84095 0.41840
 N412 N 0.76195 0.83525 0.44654
 H413 H 0.82571 0.88201 0.57545
 H414 H 0.78917 0.95668 0.44829
 H415 H 0.85677 1.01256 0.45938
 H416 H 0.89450 0.93514 0.58934
 H417 H 0.69894 0.79517 0.46153
 H418 H 0.71021 0.73948 0.39365
 H419 H 0.84124 0.81558 0.35740
 H420 H 0.82718 0.86919 0.42613
 C421 C 0.72483 0.77388 0.63115
 C422 C 0.61857 0.97787 0.47355
 C423 C 0.77668 0.77306 0.36957
 C424 C 0.88197 0.97869 0.52540
 C425 C 0.02120 0.18831 0.45044
 H426 H 0.05218 0.21161 0.45444
 C427 C 0.01467 0.14957 0.48171
 H428 H 0.04105 0.14325 0.50963
 C429 C -0.05100 0.16903 0.40937
 H430 H -0.07682 0.17708 0.38152
 C431 C -0.05887 0.12978 0.43973
 H432 H -0.09073 0.10791 0.43459
 N433 N -0.01124 0.19709 0.41495
 C434 C 0.06250 0.27291 0.29937
 H435 H 0.03947 0.30406 0.29547
 C436 C 0.10109 0.26613 0.26793
 H437 H 0.10760 0.29251 0.24004
 C438 C 0.08117 0.20042 0.34016
 H439 H 0.07291 0.17449 0.36785
 C440 C 0.12024 0.19231 0.30966
 H441 H 0.14177 0.16021 0.31463
 Zn442 Zn -0.00055 0.25111 0.37493
 N443 N 0.05350 0.24045 0.33483
 C444 C 0.04895 0.33393 0.40928
 N445 N 0.00984 0.30510 0.41527
 C446 C -0.02208 0.31297 0.45145
 C447 C -0.01559 0.35142 0.48318
 C448 C 0.05666 0.37305 0.43987
 C449 C -0.06223 0.22959 0.29848
 C450 C -0.10072 0.23593 0.26687
 C451 C -0.12249 0.30809 0.31032
 C452 C -0.08333 0.30050 0.34082
 N453 N -0.05441 0.26152 0.33467
 H454 H 0.07442 0.32663 0.38091
 H455 H -0.05257 0.28910 0.45576
 H456 H -0.04167 0.35667 0.51163
 H457 H 0.08810 0.39539 0.43403
 H458 H -0.03831 0.19917 0.29411
 H459 H -0.10595 0.20982 0.23842
 H460 H -0.14493 0.33941 0.31627
 H461 H -0.07609 0.32590 0.36930
 C462 C 0.13065 0.22539 0.27290
 C463 C -0.02579 0.11961 0.47654
 C464 C -0.13176 0.27563 0.27250
 C465 C 0.02423 0.38237 0.47768
 C466 C -0.02258 0.68659 0.04599
 H467 H -0.05338 0.71006 0.04186
 C468 C -0.01607 0.64974 0.01568
 H469 H -0.04206 0.64378 -0.01270
 C470 C 0.04912 0.66846 0.08952
 H471 H 0.07485 0.67625 0.11751
 C472 C 0.05745 0.62700 0.05747
 H473 H 0.08913 0.60513 0.06359
 N474 N 0.01132 0.69556 0.08398
 C475 C -0.06155 0.77156 0.19999
 H476 H -0.03828 0.80260 0.20371
 C477 C -0.10001 0.76508 0.23162
 H478 H -0.10617 0.79155 0.25952
 C479 C -0.08102 0.69918 0.15924
 H480 H -0.07314 0.67330 0.13135
 C481 C -0.11999 0.69135 0.18996
 H482 H -0.14186 0.65943 0.18506
 Zn483 Zn 0.00073 0.74964 0.12414
 N484 N -0.05300 0.73900 0.16450
 C485 C -0.05027 0.83117 0.08945
 N486 N -0.01022 0.80356 0.08406
 C487 C 0.02237 0.81279 0.04880
 C488 C 0.01575 0.85162 0.01766
 C489 C -0.05824 0.87049 0.05924
 C490 C 0.06341 0.72812 0.19981
 C491 C 0.10198 0.73476 0.23128
 C492 C 0.12165 0.80845 0.18950
 C493 C 0.08258 0.80048 0.15896
 N494 N 0.05468 0.76056 0.16430
 H495 H -0.07627 0.82274 0.11704
 H496 H 0.05358 0.78983 0.04491
 H497 H 0.04228 0.85834 -0.01005
 H498 H -0.09033 0.89202 0.06426
 H499 H 0.04021 0.69706 0.20371
 H500 H 0.10827 0.70836 0.25920
 H501 H 0.14340 0.84044 0.18454
 H502 H 0.07452 0.82639 0.13120
 C503 C -0.12993 0.72454 0.22679
 C504 C 0.02634 0.61752 0.02145
 C505 C 0.13180 0.77534 0.22629
 C506 C -0.02497 0.88119 0.02274
 C507 C 0.47917 0.18677 0.54936
 H508 H 0.44816 0.20998 0.54543
 C509 C 0.48583 0.14824 0.51783
 H510 H 0.45952 0.14201 0.48981
 C511 C 0.55129 0.16748 0.59045
 H512 H 0.57707 0.17544 0.61838
 C513 C 0.55930 0.12844 0.55982
 H514 H 0.59120 0.10664 0.56486
 N515 N 0.51145 0.19539 0.58505
 C516 C 0.43703 0.27165 0.70352
 H517 H 0.46062 0.30234 0.70808
 C518 C 0.39996 0.26504 0.73350
 H519 H 0.39397 0.29084 0.76207
 C520 C 0.41879 0.20036 0.65921
 H521 H 0.42658 0.17486 0.63100
 C522 C 0.37708 0.19192 0.69091
 H523 H 0.35508 0.16036 0.68438
 Zn524 Zn 0.50026 0.24909 0.62551
 N525 N 0.44604 0.23803 0.66529
 C526 C 0.44955 0.33084 0.59088
 N527 N 0.48951 0.30310 0.58552
 C528 C 0.52208 0.31210 0.55017
 C529 C 0.51544 0.35072 0.51878
 C530 C 0.44157 0.36997 0.56040
 C531 C 0.56315 0.22731 0.70110
 C532 C 0.60179 0.23401 0.73249
 C533 C 0.62056 0.30831 0.69138
 C534 C 0.58144 0.30027 0.66092
 N535 N 0.55395 0.26003 0.66596
 H536 H 0.42366 0.32261 0.61864
 H537 H 0.55323 0.28905 0.54635
 H538 H 0.54193 0.35721 0.49097
 H539 H 0.40954 0.39159 0.56536
 H540 H 0.54030 0.19595 0.70472
 H541 H 0.60848 0.20739 0.76010
 H542 H 0.64197 0.34055 0.68662
 H543 H 0.57305 0.32636 0.63343
 C544 C 0.36756 0.22279 0.72712
 C545 C 0.52630 0.11835 0.52290
 C546 C 0.63121 0.27493 0.72777
 C547 C 0.47475 0.38034 0.52369
 C548 C 0.52139 0.68846 0.95077
 H549 H 0.55259 0.71153 0.95433
 C550 C 0.51506 0.64972 0.98212
 H551 H 0.54180 0.64315 1.00964
 C552 C 0.44847 0.66972 0.91075
 H553 H 0.42226 0.67797 0.88335
 C554 C 0.44081 0.63049 0.94117
 H555 H 0.40872 0.60884 0.93645
 N556 N 0.48853 0.69746 0.91571
 C557 C 0.56183 0.77300 0.79958
 H558 H 0.53887 0.80423 0.79585
 C559 C 0.60044 0.76634 0.76815
 H560 H 0.60702 0.79286 0.74041
 C561 C 0.58038 0.70031 0.84005
 H562 H 0.57209 0.67429 0.86765
 C563 C 0.61946 0.69229 0.80955
 H564 H 0.64097 0.66016 0.81441
 Zn565 Zn 0.49908 0.75131 0.87536
 N566 N 0.55281 0.74042 0.83492
 C567 C 0.54941 0.83372 0.90947
 N568 N 0.50998 0.80532 0.91540
 C569 C 0.47801 0.81359 0.95142
 C570 C 0.48478 0.85202 0.98307
 C571 C 0.55742 0.87284 0.93998
 C572 C 0.43606 0.72917 0.80020
 C573 C 0.39738 0.73555 0.76885
 C574 C 0.37792 0.80954 0.81023
 C575 C 0.41712 0.80181 0.84069
 N576 N 0.44499 0.76191 0.83543
 H577 H 0.57492 0.82607 0.88122
 H578 H 0.44726 0.79004 0.95567
 H579 H 0.45864 0.85760 1.01142
 H580 H 0.58910 0.89485 0.93422
 H581 H 0.45920 0.69807 0.79645
 H582 H 0.39097 0.70893 0.74114
 H583 H 0.35621 0.84154 0.81509
 H584 H 0.42529 0.82787 0.86832
 C585 C 0.62998 0.72557 0.77300
 C586 C 0.47437 0.62000 0.97745
 C587 C 0.36763 0.77617 0.77366
 C588 C 0.52495 0.88253 0.97766
   
