data_POSCAR
  _audit_creation_date              2014-09-24
  _audit_creation_method            'ToBaCCo'
  _symmetry_space_group_name_H-M    'P1'
  _symmetry_Int_Tables_number       1
  _symmetry_cell_setting            triclinic
  loop_
  _symmetry_equiv_pos_as_xyz
 x,y,z
_cell_length_a 22.2713
_cell_length_b 22.1905
_cell_length_c 20.6212
_cell_angle_alpha 89.727800
_cell_angle_beta 90.022700
_cell_angle_gamma 88.986500
loop_
  _atom_site_label
  _atom_site_type_symbol
  _atom_site_fract_x
  _atom_site_fract_y
  _atom_site_fract_z
O1 O -0.07810 0.33781 0.04981
 O2 O 0.04155 0.33958 -0.07451
 O3 O -0.07608 0.33627 -0.07645
 O4 O 0.03863 0.34106 0.05215
 O5 O 0.04235 0.24156 0.05407
 O6 O -0.07170 0.23679 -0.07442
 O7 O 0.04527 0.24019 -0.07255
 O8 O -0.07360 0.23834 0.05150
 Cu9 Cu -0.01886 0.34868 -0.01267
 Cu10 Cu -0.01384 0.22928 -0.01039
 C11 C -0.09600 0.28774 0.07201
 C12 C 0.06399 0.29006 -0.09467
 C13 C -0.09378 0.28573 -0.09693
 C14 C 0.05951 0.29200 0.07551
 O15 O 0.57272 0.82109 0.45577
 O16 O 0.45524 0.79567 0.57907
 O17 O 0.57173 0.80966 0.58158
 O18 O 0.45682 0.81555 0.45468
 O19 O 0.46551 0.71695 0.44219
 O20 O 0.58304 0.71131 0.56894
 O21 O 0.46762 0.69727 0.56781
 O22 O 0.58106 0.72255 0.44289
 Cu23 Cu 0.51313 0.82032 0.51945
 Cu24 Cu 0.52522 0.70213 0.50429
 C25 C 0.59610 0.77562 0.42753
 C26 C 0.44180 0.74195 0.59451
 C27 C 0.59723 0.76009 0.59678
 C28 C 0.44201 0.76761 0.42622
 O29 O 0.95973 0.70900 -0.05979
 O30 O 1.07981 0.68472 0.05936
 O31 O 0.96289 0.68571 0.06222
 O32 O 1.07756 0.71403 -0.06186
 O33 O 1.07161 0.81183 -0.04306
 O34 O 0.96087 0.78304 0.08408
 O35 O 1.07964 0.78249 0.07896
 O36 O 0.95640 0.80656 -0.03960
 Cu37 Cu 1.02039 0.68866 -0.00246
 Cu38 Cu 1.01687 0.80571 0.02307
 C39 C 0.93676 0.76109 -0.06965
 C40 C 1.10112 0.72959 0.08862
 C41 C 0.94158 0.73020 0.09356
 C42 C 1.09417 0.76760 -0.07362
 O43 O 0.43517 0.20040 0.42711
 O44 O 0.54870 0.21912 0.55334
 O45 O 0.42854 0.22188 0.55609
 O46 O 0.54827 0.21864 0.43035
 O47 O 0.53417 0.31670 0.41727
 O48 O 0.42404 0.32110 0.54870
 O49 O 0.54027 0.31815 0.54472
 O50 O 0.41810 0.29879 0.42470
 Cu51 Cu 0.48923 0.20577 0.49404
 Cu52 Cu 0.47834 0.32335 0.48260
 C53 C 0.40694 0.24588 0.40463
 C54 C 0.56495 0.27132 0.56984
 C55 C 0.40708 0.27263 0.57470
 C56 C 0.56114 0.26804 0.40220
 O57 O 0.65429 0.04496 -0.07080
 O58 O 0.65971 -0.07196 0.05636
 O59 O 0.65529 0.04552 0.05526
 O60 O 0.66452 -0.07201 -0.07057
 O61 O 0.76357 -0.07192 -0.06427
 O62 O 0.75420 0.05083 0.05450
 O63 O 0.75837 -0.06521 0.06124
 O64 O 0.75339 0.04641 -0.07183
 Cu65 Cu 0.64854 -0.01398 -0.00765
 Cu66 Cu 0.76734 -0.00954 -0.00529
 C67 C 0.70286 0.06555 -0.09316
 C68 C 0.70967 -0.08785 0.08133
 C69 C 0.70348 0.06838 0.07606
 C70 C 0.71560 -0.09250 -0.08801
 O71 O 0.16478 0.45228 0.56873
 O72 O 0.17256 0.56444 0.43810
 O73 O 0.18634 0.44454 0.44025
 O74 O 0.17348 0.56663 0.56116
 O75 O 0.27250 0.56670 0.56730
 O76 O 0.28521 0.45017 0.44377
 O77 O 0.27165 0.56277 0.44413
 O78 O 0.26382 0.44537 0.57086
 Cu79 Cu 0.16504 0.50514 0.50002
 Cu80 Cu 0.28256 0.50485 0.50932
 C81 C 0.21270 0.42941 0.59180
 C82 C 0.22303 0.58336 0.41927
 C83 C 0.23819 0.42770 0.42042
 C84 C 0.22165 0.58792 0.58423
 O85 O 0.32493 1.06365 0.07606
 O86 O 0.33231 0.95065 -0.05380
 O87 O 0.32774 1.06686 -0.05058
 O88 O 0.31979 0.94547 0.07305
 O89 O 0.22070 0.95190 0.07001
 O90 O 0.22910 1.06417 -0.05959
 O91 O 0.23320 0.94718 -0.05598
 O92 O 0.22622 1.06753 0.06711
 Cu93 Cu 0.33617 1.00626 0.01224
 Cu94 Cu 0.21750 1.00786 0.00466
 C95 C 0.27446 1.08556 0.09330
 C96 C 0.28430 0.93004 -0.07723
 C97 C 0.27921 1.08515 -0.07728
 C98 C 0.26851 0.92921 0.09336
 O99 O 0.82039 0.55249 0.55605
 O100 O 0.83248 0.42653 0.43951
 O101 O 0.84069 0.54780 0.43620
 O102 O 0.82490 0.43984 0.56934
 O103 O 0.72702 0.43602 0.55209
 O104 O 0.74275 0.54626 0.41924
 O105 O 0.73415 0.42890 0.42690
 O106 O 0.72194 0.55410 0.54137
 Cu107 Cu 0.83926 0.48930 0.49965
 Cu108 Cu 0.72159 0.49116 0.48339
 C109 C 0.76860 0.57512 0.56747
 C110 C 0.78519 0.40614 0.41363
 C111 C 0.79433 0.56724 0.40662
 C112 C 0.77367 0.41987 0.58377
 C113 C 0.21754 0.20287 0.21255
 C114 C 0.16971 0.24569 0.21057
 C115 C 0.16602 0.29050 0.25815
 C116 C 0.20985 0.29542 0.30633
 C117 C 0.25887 0.25362 0.30824
 C118 C 0.26129 0.20723 0.26166
 H119 H 0.29606 0.17274 0.26503
 H120 H 0.12848 0.32232 0.25759
 C121 C 0.76223 0.80074 0.20906
 C122 C 0.81017 0.75797 0.21016
 C123 C 0.80622 0.70695 0.25038
 C124 C 0.75653 0.69839 0.29098
 C125 C 0.71089 0.74345 0.29348
 C126 C 0.71403 0.79376 0.25225
 H127 H 0.67824 0.82745 0.25347
 H128 H 0.84211 0.67345 0.24986
 C129 C 0.78973 0.23468 0.19973
 C130 C 0.74754 0.18767 0.20111
 C131 C 0.70319 0.18742 0.24961
 C132 C 0.69907 0.23321 0.29599
 C133 C 0.74206 0.27968 0.29586
 C134 C 0.78638 0.27991 0.24717
 H135 H 0.81880 0.31565 0.24614
 H136 H 0.67147 0.15096 0.25161
 C137 C 0.23738 0.75279 0.20075
 C138 C 0.28976 0.78834 0.19841
 C139 C 0.33657 0.77684 0.24230
 C140 C 0.33241 0.73159 0.28967
 C141 C 0.28095 0.69547 0.29213
 C142 C 0.23404 0.70664 0.24774
 H143 H 0.19442 0.67927 0.24998
 H144 H 0.37652 0.80405 0.24016
 C145 C 0.69560 0.23423 0.68708
 C146 C 0.74023 0.27904 0.68529
 C147 C 0.78675 0.27635 0.73154
 C148 C 0.78942 0.23165 0.77992
 C149 C 0.74573 0.18616 0.78066
 C150 C 0.69970 0.18803 0.73386
 H151 H 0.66678 0.15264 0.73315
 H152 H 0.82335 0.30755 0.72842
 C153 C 0.30735 0.75842 0.70886
 C154 C 0.26591 0.71081 0.70560
 C155 C 0.22401 0.70476 0.75589
 C156 C 0.22056 0.74569 0.80726
 C157 C 0.26235 0.79319 0.81113
 C158 C 0.30507 0.79859 0.76109
 H159 H 0.33885 0.83292 0.76308
 H160 H 0.19333 0.66741 0.75558
 C161 C 0.23473 0.28397 0.69195
 C162 C 0.27966 0.23761 0.69453
 C163 C 0.27738 0.19393 0.74376
 C164 C 0.23197 0.19494 0.79100
 C165 C 0.18632 0.24011 0.78809
 C166 C 0.18833 0.28381 0.73857
 H167 H 0.15157 0.31609 0.73470
 H168 H 0.31125 0.15822 0.74486
 C169 C 0.76828 0.67325 0.71988
 C170 C 0.71904 0.71447 0.72025
 C171 C 0.71576 0.75853 0.76900
 C172 C 0.76129 0.76499 0.81590
 C173 C 0.81073 0.72354 0.81473
 C174 C 0.81249 0.67800 0.76769
 H175 H 0.84978 0.64582 0.76773
 H176 H 0.67531 0.78591 0.77169
 C177 C 0.27275 0.12996 0.14125
 C178 C 0.22096 0.15334 0.16404
 H179 H 0.31511 0.14622 0.15941
 H180 H 0.17932 0.13647 0.14499
 C181 C 0.76223 0.62717 0.61026
 C182 C 0.77548 0.62278 0.67325
 H183 H 0.74461 0.66867 0.58951
 H184 H 0.79519 0.58087 0.69122
 C185 C 0.71032 0.86893 0.13072
 C186 C 0.76095 0.85100 0.16110
 H187 H 0.66810 0.84834 0.14329
 H188 H 0.80285 0.87139 0.14750
 C189 C 0.20883 0.38488 0.64433
 C190 C 0.23392 0.32984 0.63872
 H191 H 0.18501 0.39833 0.68771
 H192 H 0.25566 0.31870 0.59326
 C193 C 0.85666 0.28753 0.12209
 C194 C 0.83791 0.23634 0.14970
 H195 H 0.83642 0.33037 0.13568
 H196 H 0.85815 0.19416 0.13430
 C197 C 0.39623 0.73025 0.64417
 C198 C 0.35254 0.77003 0.65805
 H199 H 0.39792 0.68703 0.66885
 H200 H 0.35223 0.81416 0.63530
 C201 C 0.15163 0.71886 0.13358
 C202 C 0.18607 0.76333 0.15525
 H203 H 0.16233 0.67251 0.14628
 H204 H 0.17648 0.80830 0.13768
 C205 C 0.61320 0.27795 0.61820
 C206 C 0.64613 0.23042 0.63897
 H207 H 0.62189 0.32261 0.63650
 H208 H 0.63474 0.18571 0.62257
 C209 C 0.69948 0.11274 0.85626
 C210 C 0.74852 0.13620 0.82916
 H211 H 0.65535 0.12988 0.84281
 H212 H 0.79202 0.11906 0.84441
 C213 C 0.22477 0.63014 0.36859
 C214 C 0.27651 0.64654 0.34124
 H215 H 0.18281 0.65199 0.35485
 H216 H 0.31761 0.62433 0.35707
 C217 C 0.28825 0.88898 0.86739
 C218 C 0.26369 0.83433 0.86840
 H219 H 0.31090 0.90585 0.82493
 H220 H 0.24325 0.81976 0.91330
 C221 C 0.78972 0.35576 0.36742
 C222 C 0.74053 0.32844 0.34517
 H223 H 0.83404 0.34078 0.35229
 H224 H 0.69754 0.34250 0.36446
 C225 C 0.10993 0.29112 0.85892
 C226 C 0.13546 0.24049 0.83520
 H227 H 0.12595 0.33459 0.84308
 H228 H 0.11919 0.19759 0.85206
 C229 C 0.64159 0.78443 0.37679
 C230 C 0.66025 0.73850 0.33956
 H231 H 0.66121 0.82850 0.37143
 H232 H 0.63982 0.69502 0.34577
 C233 C 0.88909 0.76847 0.88670
 C234 C 0.86000 0.72080 0.86317
 H235 H 0.87527 0.81375 0.87289
 H236 H 0.87541 0.67582 0.87671
 C237 C 0.36200 0.23703 0.35354
 C238 C 0.30520 0.25664 0.36050
 H239 H 0.37659 0.21417 0.30996
 H240 H 0.29296 0.27763 0.40604
 C241 C 0.71890 0.86106 0.86169
 C242 C 0.75452 0.81181 0.86751
 H243 H 0.69153 0.86910 0.81921
 H244 H 0.77911 0.80583 0.91239
 C245 C 0.24517 0.38156 0.37018
 C246 C 0.20118 0.34433 0.35424
 H247 H 0.28891 0.37641 0.34766
 H248 H 0.15673 0.35111 0.37464
 C249 C 0.28127 0.12855 0.87346
 C250 C 0.23156 0.14755 0.84199
 H251 H 0.32434 0.14741 0.86100
 H252 H 0.18886 0.12835 0.85473
 C253 C 0.80062 0.61683 0.35974
 C254 C 0.75278 0.64291 0.33123
 H255 H 0.84491 0.63523 0.35302
 H256 H 0.70900 0.62447 0.34045
 C257 C 0.13829 0.77877 0.88045
 C258 C 0.17291 0.73475 0.85566
 H259 H 0.14581 0.82518 0.86659
 H260 H 0.16419 0.68817 0.86816
 C261 C 0.60789 0.27043 0.35175
 C262 C 0.65121 0.22835 0.34567
 H263 H 0.60830 0.30980 0.32044
 H264 H 0.65010 0.18784 0.37516
 C265 C 0.85903 0.28458 0.85317
 C266 C 0.83856 0.23295 0.82875
 H267 H 0.83963 0.32738 0.83766
 H268 H 0.85760 0.19082 0.84629
 C269 C 0.39710 0.77224 0.37418
 C270 C 0.38061 0.72511 0.33875
 H271 H 0.37631 0.81605 0.36521
 H272 H 0.40014 0.68095 0.34835
 C273 C 0.26288 0.88405 0.14491
 C274 C 0.29925 0.83590 0.14922
 H275 H 0.22489 0.88843 0.17748
 H276 H 0.33819 0.83210 0.11790
 C277 C 0.76895 0.37804 0.63843
 C278 C 0.74209 0.32486 0.63228
 H279 H 0.79088 0.39057 0.68302
 H280 H 0.72214 0.31414 0.58593
 C281 C 0.70007 0.11583 0.12569
 C282 C 0.74957 0.13861 0.15241
 H283 H 0.65607 0.13283 0.13966
 H284 H 0.79296 0.12147 0.13697
 C285 C 0.21794 0.63714 0.63176
 C286 C 0.26694 0.66601 0.65200
 H287 H 0.17398 0.64933 0.65043
 H288 H 0.30916 0.65516 0.62893
 C289 C 0.89221 0.72016 0.13931
 C290 C 0.86423 0.76602 0.16933
 H291 H 0.87590 0.67470 0.14446
 H292 H 0.88039 0.81119 0.16193
 C293 C 0.36187 0.27710 0.62659
 C294 C 0.32846 0.23087 0.64571
 H295 H 0.35391 0.32119 0.64760
 H296 H 0.33812 0.18623 0.62688
 C297 C 0.10414 0.29414 0.12802
 C298 C 0.12316 0.24427 0.15917
 H299 H 0.12213 0.33756 0.14080
 H300 H 0.10489 0.20131 0.14560
 C301 C 0.64423 0.76086 0.64675
 C302 C 0.66906 0.71095 0.67278
 H303 H 0.65968 0.80471 0.66166
 H304 H 0.65448 0.66710 0.65693
   
