data_POSCAR
  _audit_creation_date              2014-09-24
  _audit_creation_method            'ToBaCCo'
  _symmetry_space_group_name_H-M    'P1'
  _symmetry_Int_Tables_number       1
  _symmetry_cell_setting            triclinic
  loop_
  _symmetry_equiv_pos_as_xyz
 x,y,z
_cell_length_a 38.9893
_cell_length_b 38.9720
_cell_length_c 22.3878
_cell_angle_alpha 89.964100
_cell_angle_beta 90.032800
_cell_angle_gamma 120.467800
loop_
  _atom_site_label
  _atom_site_type_symbol
  _atom_site_fract_x
  _atom_site_fract_y
  _atom_site_fract_z
C1 C 0.54452 1.08689 0.44621
 C2 C 0.55369 1.10667 0.50137
 C3 C 0.54463 1.08648 0.55619
 C4 C 0.52449 1.04409 0.55594
 C5 C 0.51486 1.02318 0.50073
 C6 C 0.52531 1.04456 0.44579
 C7 C 0.51840 1.02303 0.39230
 C8 C 0.49863 0.98176 0.39197
 C9 C 0.48685 0.95993 0.44537
 C10 C 0.49494 0.98066 0.50043
 C11 C 0.51217 1.02185 0.60915
 C12 C 0.49396 0.98069 0.60884
 C13 C 0.48355 0.95902 0.55514
 C14 C 0.46404 0.91657 0.55438
 C15 C 0.45701 0.89715 0.49908
 C16 C 0.46738 0.91790 0.44508
 H17 H 0.52881 1.03762 0.34968
 H18 H 0.49320 0.96729 0.34900
 H19 H 0.51613 1.03573 0.65227
 H20 H 0.48874 0.96640 0.65186
 H21 H 0.56861 1.13893 0.50165
 H22 H 0.44140 0.86487 0.49754
 C23 C -0.08375 0.45870 0.44584
 C24 C -0.10458 0.44700 0.49974
 C25 C -0.08505 0.45649 0.55528
 C26 C -0.04259 0.47721 0.55603
 C27 C -0.02101 0.49000 0.50148
 C28 C -0.04172 0.48036 0.44627
 C29 C -0.01990 0.49094 0.39277
 C30 C 0.02140 0.51118 0.39323
 C31 C 0.04275 0.52202 0.44721
 C32 C 0.02143 0.51096 0.50195
 C33 C -0.02114 0.48203 0.60897
 C34 C 0.02019 0.50257 0.60948
 C35 C 0.04235 0.51921 0.55701
 C36 C 0.08477 0.54034 0.55730
 C37 C 0.10495 0.55038 0.50235
 C38 C 0.08482 0.54191 0.44782
 H39 H -0.03453 0.48286 0.34974
 H40 H 0.03630 0.51738 0.35051
 H41 H -0.03595 0.46860 0.65054
 H42 H 0.03445 0.50372 0.65144
 H43 H -0.13682 0.43175 0.49798
 H44 H 0.13723 0.56691 0.50167
 C45 C 0.53751 0.45431 0.44692
 C46 C 0.54481 0.44146 0.50122
 C47 C 0.53395 0.45053 0.55624
 C48 C 0.51250 0.47119 0.55606
 C49 C 0.50540 0.48503 0.50131
 C50 C 0.51809 0.47668 0.44661
 C51 C 0.50981 0.48974 0.39290
 C52 C 0.49000 0.51096 0.39275
 C53 C 0.47615 0.51867 0.44609
 C54 C 0.48429 0.50608 0.50105
 C55 C 0.49465 0.47509 0.60821
 C56 C 0.47407 0.49557 0.60792
 C57 C 0.47044 0.51345 0.55554
 C58 C 0.45024 0.53541 0.55519
 C59 C 0.44186 0.54664 0.49985
 C60 C 0.45418 0.53848 0.44581
 H61 H 0.51811 0.48340 0.35007
 H62 H 0.48539 0.52092 0.35000
 H63 H 0.49505 0.46105 0.64965
 H64 H 0.45983 0.49589 0.64913
 H65 H 0.56127 0.42587 0.50035
 H66 H 0.42655 0.56336 0.49842
 O67 O 0.39280 0.65743 -0.05361
 O68 O 0.39320 0.72373 -0.06903
 C69 C 0.37409 0.74105 -0.08202
 O70 O 0.34380 0.73572 -0.05288
 O71 O 0.27692 0.66937 -0.06617
 C72 C 0.25927 0.63270 -0.07915
 O73 O 0.26490 0.60774 -0.05077
 O74 O 0.33065 0.60773 -0.06761
 C75 C 0.36715 0.62665 -0.08159
 O76 O 0.39290 0.66748 0.06585
 O77 O 0.39639 0.73517 0.05044
 C78 C 0.37261 0.74227 0.07927
 O79 O 0.33595 0.72612 0.06688
 O80 O 0.26771 0.66112 0.05385
 C81 C 0.26077 0.62991 0.08203
 O82 O 0.27656 0.60949 0.06829
 O83 O 0.34089 0.60653 0.05176
 C84 C 0.37234 0.63099 0.07960
 Cr85 Cr 0.39148 0.69484 -0.00155
 Cr86 Cr 0.30720 0.69687 0.00041
 Cr87 Cr 0.30450 0.61022 0.00041
 O88 O 0.33438 0.66732 -0.00016
 O89 O 0.60570 0.34242 -0.05138
 O90 O 0.60795 0.27762 -0.06724
 C91 C 0.62749 0.26063 -0.07927
 O92 O 0.65783 0.26669 -0.04951
 O93 O 0.72276 0.33420 -0.06757
 C94 C 0.73997 0.37082 -0.08087
 O95 O 0.73437 0.39571 -0.05206
 O96 O 0.66698 0.39311 -0.06839
 C97 C 0.63024 0.37302 -0.08086
 O98 O 0.60750 0.33314 0.06782
 O99 O 0.60651 0.26650 0.05224
 C100 C 0.63157 0.26168 0.08195
 O101 O 0.66833 0.27962 0.06946
 O102 O 0.73522 0.34546 0.05120
 C103 C 0.74072 0.37585 0.08025
 O104 O 0.72306 0.39464 0.06755
 O105 O 0.65740 0.39501 0.05115
 C106 C 0.62689 0.36991 0.08030
 Cr107 Cr 0.60917 0.30607 0.00037
 Cr108 Cr 0.69489 0.30760 0.00090
 Cr109 Cr 0.69434 0.39237 -0.00044
 O110 O 0.66613 0.33537 0.00029
 C111 C 0.42459 0.84341 -0.29050
 C112 C 0.44532 0.83674 -0.33600
 C113 C 0.45808 0.86076 -0.38685
 C114 C 0.45088 0.89253 -0.39355
 C115 C 0.42851 0.89799 -0.34910
 C116 C 0.41594 0.87406 -0.29795
 C117 C 0.41205 0.81830 -0.23575
 C118 C 0.37510 0.80628 -0.20870
 C119 C 0.36306 0.78179 -0.15816
 C120 C 0.38759 0.76857 -0.13375
 C121 C 0.42470 0.78096 -0.16037
 C122 C 0.43685 0.80567 -0.21054
 H123 H 0.47473 0.85514 -0.42026
 H124 H 0.42020 0.92048 -0.35423
 H125 H 0.33416 0.77255 -0.13897
 H126 H 0.44444 0.77157 -0.14244
 H127 H 0.39979 0.87987 -0.26397
 H128 H 0.35504 0.81501 -0.22738
 H129 H 0.45156 0.81272 -0.33253
 H130 H 0.46584 0.81502 -0.22946
 C131 C 0.15560 0.57858 -0.28550
 C132 C 0.16476 0.56070 -0.33239
 C133 C 0.14151 0.54827 -0.38404
 C134 C 0.10783 0.55250 -0.38967
 C135 C 0.09917 0.57109 -0.34281
 C136 C 0.12278 0.58396 -0.29137
 C137 C 0.18062 0.59187 -0.23098
 C138 C 0.19345 0.62964 -0.20646
 C139 C 0.21863 0.64280 -0.15671
 C140 C 0.23110 0.61824 -0.13008
 C141 C 0.21748 0.58010 -0.15395
 C142 C 0.19267 0.56715 -0.20400
 H143 H 0.14929 0.53419 -0.41897
 H144 H 0.07467 0.57660 -0.34653
 H145 H 0.22858 0.67233 -0.13941
 H146 H 0.22659 0.56047 -0.13466
 H147 H 0.11523 0.59789 -0.25597
 H148 H 0.18482 0.64939 -0.22671
 H149 H 0.19027 0.55674 -0.32936
 H150 H 0.18287 0.53774 -0.22169
 C151 C 0.41658 0.57318 -0.28844
 C152 C 0.39070 0.55771 -0.33752
 C153 C 0.40176 0.54523 -0.38867
 C154 C 0.43891 0.54737 -0.39209
 C155 C 0.46516 0.56382 -0.34322
 C156 C 0.45403 0.57631 -0.29199
 C157 C 0.40447 0.58625 -0.23408
 C158 C 0.43172 0.62119 -0.20377
 C159 C 0.41981 0.63405 -0.15378
 C160 C 0.38037 0.61226 -0.13301
 C161 C 0.35330 0.57704 -0.16289
 C162 C 0.36523 0.56417 -0.21272
 H163 H 0.38057 0.53278 -0.42502
 H164 H 0.49478 0.56795 -0.34507
 H165 H 0.44139 0.66140 -0.13200
 H166 H 0.32274 0.55941 -0.14799
 H167 H 0.47472 0.58823 -0.25499
 H168 H 0.46203 0.63911 -0.21952
 H169 H 0.36192 0.55559 -0.33667
 H170 H 0.34370 0.53678 -0.23446
 C171 C 0.57984 0.15781 -0.28686
 C172 C 0.58855 0.12714 -0.29337
 C173 C 0.57722 0.10370 -0.34500
 C174 C 0.55615 0.10977 -0.39098
 C175 C 0.54871 0.14141 -0.38497
 C176 C 0.56019 0.16490 -0.33361
 C177 C 0.59141 0.18268 -0.23194
 C178 C 0.56623 0.19529 -0.20822
 C179 C 0.57770 0.22012 -0.15825
 C180 C 0.61450 0.23267 -0.13039
 C181 C 0.63933 0.21936 -0.15321
 C182 C 0.62796 0.19474 -0.20352
 H183 H 0.58552 0.08116 -0.34934
 H184 H 0.53291 0.14738 -0.41946
 H185 H 0.55774 0.22959 -0.14158
 H186 H 0.66800 0.22871 -0.13304
 H187 H 0.55390 0.18891 -0.33078
 H188 H 0.53753 0.18592 -0.22827
 H189 H 0.60385 0.12100 -0.25834
 H190 H 0.64829 0.18600 -0.22105
 C191 C 0.84273 0.42289 -0.28869
 C192 C 0.83251 0.39670 -0.33726
 C193 C 0.85623 0.40783 -0.38837
 C194 C 0.89124 0.44540 -0.39227
 C195 C 0.90067 0.47208 -0.34415
 C196 C 0.87687 0.46087 -0.29292
 C197 C 0.81771 0.41034 -0.23397
 C198 C 0.80923 0.43680 -0.20376
 C199 C 0.78450 0.42426 -0.15347
 C200 C 0.76770 0.38498 -0.13237
 C201 C 0.77677 0.35879 -0.16210
 C202 C 0.80151 0.37134 -0.21215
 H203 H 0.84771 0.38634 -0.42419
 H204 H 0.92611 0.50199 -0.34652
 H205 H 0.77800 0.44515 -0.13176
 H206 H 0.76458 0.32840 -0.14693
 H207 H 0.88543 0.48182 -0.25635
 H208 H 0.82095 0.46693 -0.21982
 H209 H 0.80595 0.36752 -0.33593
 H210 H 0.80806 0.35045 -0.23373
 C211 C 0.57315 0.41897 -0.28700
 C212 C 0.57714 0.45672 -0.29213
 C213 C 0.56376 0.46699 -0.34330
 C214 C 0.54606 0.43972 -0.39072
 C215 C 0.54301 0.40221 -0.38571
 C216 C 0.55594 0.39183 -0.33426
 C217 C 0.58729 0.40791 -0.23290
 C218 C 0.56355 0.37056 -0.20600
 C219 C 0.57723 0.35957 -0.15601
 C220 C 0.61515 0.38555 -0.13217
 C221 C 0.63879 0.42306 -0.15890
 C222 C 0.62489 0.43422 -0.20855
 H223 H 0.56835 0.49677 -0.34646
 H224 H 0.52959 0.38032 -0.42101
 H225 H 0.55832 0.33041 -0.13663
 H226 H 0.66812 0.44377 -0.14161
 H227 H 0.55297 0.36269 -0.33174
 H228 H 0.53431 0.34987 -0.22361
 H229 H 0.59050 0.47827 -0.25641
 H230 H 0.64389 0.46307 -0.22876
 C231 C 0.84538 0.42579 0.28591
 C232 C 0.87004 0.46615 0.30106
 C233 C 0.89337 0.47694 0.35276
 C234 C 0.89265 0.44760 0.38994
 C235 C 0.86800 0.40735 0.37516
 C236 C 0.84467 0.39653 0.32355
 C237 C 0.81987 0.41410 0.23175
 C238 C 0.81485 0.38225 0.19598
 C239 C 0.78964 0.37022 0.14635
 C240 C 0.76888 0.38979 0.13126
 C241 C 0.77439 0.42206 0.16655
 C242 C 0.79959 0.43407 0.21620
 H243 H 0.91194 0.50815 0.36394
 H244 H 0.86677 0.38433 0.40378
 H245 H 0.78622 0.34534 0.12008
 H246 H 0.75874 0.43771 0.15639
 H247 H 0.82548 0.36520 0.31372
 H248 H 0.83051 0.36664 0.20630
 H249 H 0.87147 0.48938 0.27276
 H250 H 0.80244 0.45839 0.24329
 C251 C 0.57852 0.15893 0.28994
 C252 C 0.53996 0.12568 0.29497
 C253 C 0.52849 0.10198 0.34639
 C254 C 0.55551 0.11054 0.39372
 C255 C 0.59363 0.14473 0.38917
 C256 C 0.60500 0.16839 0.33798
 C257 C 0.59135 0.18388 0.23509
 C258 C 0.63018 0.19934 0.21292
 C259 C 0.64302 0.22416 0.16289
 C260 C 0.61727 0.23395 0.13347
 C261 C 0.57815 0.21785 0.15485
 C262 C 0.56536 0.19313 0.20516
 H263 H 0.49822 0.07722 0.34946
 H264 H 0.61529 0.15260 0.42461
 H265 H 0.67325 0.23579 0.14741
 H266 H 0.55760 0.22494 0.13340
 H267 H 0.63460 0.19434 0.33620
 H268 H 0.65071 0.19218 0.23422
 H269 H 0.51875 0.11770 0.25888
 H270 H 0.53541 0.18208 0.22146
 C271 C 0.57556 0.42091 0.28771
 C272 C 0.59103 0.46135 0.30177
 C273 C 0.57895 0.47235 0.35358
 C274 C 0.55046 0.44317 0.39156
 C275 C 0.53532 0.40288 0.37812
 C276 C 0.54780 0.39185 0.32693
 C277 C 0.58845 0.40889 0.23285
 C278 C 0.56156 0.37423 0.20149
 C279 C 0.57398 0.36181 0.15170
 C280 C 0.61339 0.38412 0.13132
 C281 C 0.64008 0.41931 0.16148
 C282 C 0.62784 0.43141 0.21194
 H283 H 0.59155 0.50363 0.36385
 H284 H 0.51382 0.37993 0.40746
 H285 H 0.55264 0.33475 0.12900
 H286 H 0.67077 0.43689 0.14710
 H287 H 0.53603 0.36047 0.31860
 H288 H 0.53078 0.35663 0.21528
 H289 H 0.61217 0.48457 0.27249
 H290 H 0.64957 0.45788 0.23538
 C291 C 0.15739 0.57924 0.28919
 C292 C 0.13140 0.59353 0.30123
 C293 C 0.10785 0.58154 0.35273
 C294 C 0.10921 0.55442 0.39254
 C295 C 0.13533 0.54042 0.38103
 C296 C 0.15922 0.55274 0.33004
 C297 C 0.18275 0.59200 0.23465
 C298 C 0.19098 0.56528 0.20466
 C299 C 0.21605 0.57754 0.15495
 C300 C 0.23308 0.61668 0.13338
 C301 C 0.22421 0.64323 0.16236
 C302 C 0.19951 0.63110 0.21264
 H303 H 0.08837 0.59322 0.36144
 H304 H 0.13726 0.51997 0.41173
 H305 H 0.22200 0.55627 0.13325
 H306 H 0.23714 0.67368 0.14706
 H307 H 0.17955 0.54189 0.32312
 H308 H 0.17792 0.53472 0.21943
 H309 H 0.12893 0.61366 0.27060
 H310 H 0.19435 0.65267 0.23506
 C311 C 0.42990 0.84662 0.28521
 C312 C 0.47069 0.87203 0.29718
 C313 C 0.48309 0.89521 0.34912
 C314 C 0.45495 0.89402 0.38936
 C315 C 0.41434 0.86855 0.37787
 C316 C 0.40193 0.84503 0.32652
 C317 C 0.41634 0.82139 0.23053
 C318 C 0.38111 0.81346 0.20125
 C319 C 0.36713 0.78809 0.15188
 C320 C 0.38837 0.77052 0.12991
 C321 C 0.42413 0.77921 0.15801
 C322 C 0.43783 0.80416 0.20797
 H323 H 0.51460 0.91428 0.35778
 H324 H 0.39221 0.86679 0.40894
 H325 H 0.33967 0.78227 0.13082
 H326 H 0.44098 0.76585 0.14239
 H327 H 0.37036 0.82512 0.31973
 H328 H 0.36424 0.82689 0.21643
 H329 H 0.49306 0.87432 0.26622
 H330 H 0.46473 0.80906 0.22981
 C331 C 0.42128 0.57647 0.28601
 C332 C 0.44572 0.60429 0.32943
 C333 C 0.45675 0.59192 0.38083
 C334 C 0.44354 0.55150 0.39002
 C335 C 0.41872 0.52353 0.34734
 C336 C 0.40799 0.53591 0.29556
 C337 C 0.40921 0.58972 0.23162
 C338 C 0.37080 0.56646 0.20752
 C339 C 0.35911 0.57948 0.15747
 C340 C 0.38542 0.61625 0.13067
 C341 C 0.42393 0.63936 0.15434
 C342 C 0.43575 0.62615 0.20398
 H343 H 0.47548 0.61387 0.41370
 H344 H 0.40775 0.49212 0.35413
 H345 H 0.32911 0.56113 0.14063
 H346 H 0.44501 0.66771 0.13447
 H347 H 0.38950 0.51371 0.26287
 H348 H 0.34934 0.53859 0.22817
 H349 H 0.45578 0.63562 0.32428
 H350 H 0.46580 0.64447 0.22057
   
