data_POSCAR
  _audit_creation_date              2014-09-24
  _audit_creation_method            'ToBaCCo'
  _symmetry_space_group_name_H-M    'P1'
  _symmetry_Int_Tables_number       1
  _symmetry_cell_setting            triclinic
  loop_
  _symmetry_equiv_pos_as_xyz
 x,y,z
_cell_length_a 47.3080
_cell_length_b 46.8966
_cell_length_c 50.1906
_cell_angle_alpha 90.042700
_cell_angle_beta 91.506900
_cell_angle_gamma 90.417600
loop_
  _atom_site_label
  _atom_site_type_symbol
  _atom_site_fract_x
  _atom_site_fract_y
  _atom_site_fract_z
C1 C 0.24644 0.51533 1.00079
 C2 C 0.75244 0.51262 -0.00535
 C3 C 0.00815 0.24837 0.49489
 C4 C 0.99217 0.72975 0.49982
 C5 C 0.51025 0.01198 0.25704
 C6 C 0.49189 0.01484 0.74623
 C7 C 0.29553 0.00584 0.45959
 H8 H 0.29446 0.02202 0.47490
 C9 C 0.31614 0.00773 0.44027
 H10 H 0.33093 0.02546 0.44088
 C11 C 0.27845 -0.03775 0.44122
 H12 H 0.26420 -0.05579 0.44199
 C13 C 0.29879 -0.03675 0.42157
 H14 H 0.29950 -0.05377 0.40703
 N15 N 0.27710 -0.01656 0.45965
 C16 C 0.20504 0.01190 0.50488
 H17 H 0.20383 -0.00535 0.51911
 C18 C 0.18447 0.03310 0.50439
 H19 H 0.16756 0.03226 0.51850
 C20 C 0.22830 0.03366 0.46882
 H21 H 0.24498 0.03345 0.45456
 C22 C 0.20840 0.05554 0.46789
 H23 H 0.21003 0.07208 0.45296
 Zn24 Zn 0.25167 -0.01862 0.48809
 N25 N 0.22636 0.01249 0.48723
 C26 C 0.27210 0.00287 0.53823
 N27 N 0.27410 -0.01824 0.51979
 C28 C 0.29407 -0.03882 0.52223
 C29 C 0.31323 -0.03865 0.54382
 C30 C 0.29097 0.00392 0.56015
 C31 C 0.21225 -0.05576 0.46397
 C32 C 0.19437 -0.07948 0.46167
 C33 C 0.21194 -0.09562 0.50465
 C34 C 0.22970 -0.07170 0.50602
 N35 N 0.22956 -0.05238 0.48581
 H36 H 0.25644 0.01936 0.53559
 H37 H 0.29537 -0.05514 0.50708
 H38 H 0.32889 -0.05532 0.54538
 H39 H 0.28962 0.02134 0.57421
 H40 H 0.21227 -0.03986 0.44837
 H41 H 0.18104 -0.08185 0.44394
 H42 H 0.21179 -0.11027 0.52131
 H43 H 0.24302 -0.06825 0.52355
 C44 C 0.18600 0.05525 0.48568
 C45 C 0.31806 -0.01385 0.42101
 C46 C 0.19380 -0.09969 0.48232
 C47 C 0.31213 -0.01684 0.56296
 C48 C 0.70992 0.01874 0.54542
 H49 H 0.71110 0.03436 0.52964
 C50 C 0.69039 0.02208 0.56556
 H51 H 0.67689 0.04063 0.56538
 C52 C 0.72582 -0.02468 0.56449
 H53 H 0.73911 -0.04325 0.56366
 C54 C 0.70664 -0.02216 0.58502
 H55 H 0.70546 -0.03891 0.59979
 N56 N 0.72719 -0.00431 0.54528
 C57 C 0.80018 0.01717 0.49787
 H58 H 0.79986 -0.00101 0.48458
 C59 C 0.82232 0.03695 0.49702
 H60 H 0.83891 0.03406 0.48283
 C61 C 0.77902 0.04283 0.53274
 H62 H 0.76242 0.04474 0.54698
 C63 C 0.80057 0.06336 0.53231
 H64 H 0.80034 0.08101 0.54622
 Zn65 Zn 0.75124 -0.00871 0.51604
 N66 N 0.77913 0.02039 0.51554
 C67 C 0.73289 0.01219 0.46533
 N68 N 0.72820 -0.00736 0.48476
 C69 C 0.70612 -0.02603 0.48288
 C70 C 0.68808 -0.02603 0.46045
 C71 C 0.71521 0.01308 0.44261
 C72 C 0.78959 -0.04752 0.53855
 C73 C 0.80561 -0.07236 0.54034
 C74 C 0.78215 -0.08939 0.50000
 C75 C 0.76659 -0.06422 0.49897
 N76 N 0.77047 -0.04394 0.51815
 H77 H 0.75026 0.02717 0.46744
 H78 H 0.70261 -0.04099 0.49887
 H79 H 0.67056 -0.04100 0.45933
 H80 H 0.71940 0.02854 0.42717
 H81 H 0.79266 -0.03081 0.55323
 H82 H 0.82116 -0.07448 0.55641
 H83 H 0.77871 -0.10530 0.48458
 H84 H 0.75179 -0.06078 0.48257
 C85 C 0.82266 0.06041 0.51439
 C86 C 0.68848 0.00138 0.58565
 C87 C 0.80211 -0.09364 0.52079
 C88 C 0.69256 -0.00632 0.43993
 C89 C 0.47559 0.21260 1.03578
 H90 H 0.45845 0.21255 1.02108
 C91 C 0.47457 0.19440 1.05772
 H92 H 0.45658 0.18022 1.05974
 C93 C 0.52029 0.23059 1.05048
 H94 H 0.53823 0.24446 1.04741
 C95 C 0.52024 0.21256 1.07261
 H96 H 0.53800 0.21307 1.08666
 N97 N 0.49803 0.23049 1.03276
 C98 C 0.46474 0.29922 0.98282
 H99 H 0.47967 0.29910 0.96685
 C100 C 0.44316 0.31938 0.98286
 H101 H 0.44132 0.33440 0.96655
 C102 C 0.44925 0.27981 1.02352
 H103 H 0.45207 0.26487 1.03971
 C104 C 0.42741 0.29961 1.02439
 H105 H 0.41365 0.29957 1.04129
 Zn106 Zn 0.49789 0.25402 1.00217
 N107 N 0.46721 0.27976 1.00280
 C108 C 0.47443 0.23281 0.95295
 N109 N 0.49503 0.22967 0.97214
 C110 C 0.51366 0.20775 0.97134
 C111 C 0.51193 0.18780 0.95071
 C112 C 0.47222 0.21357 0.93172
 C113 C 0.53517 0.29598 1.02095
 C114 C 0.55853 0.31428 1.02095
 C115 C 0.57376 0.29154 0.98061
 C116 C 0.55007 0.27360 0.98141
 N117 N 0.53137 0.27616 1.00139
 H118 H 0.45942 0.24995 0.95422
 H119 H 0.52963 0.20559 0.98701
 H120 H 0.52685 0.17040 0.95041
 H121 H 0.45555 0.21614 0.91673
 H122 H 0.51981 0.29769 1.03646
 H123 H 0.56120 0.32981 1.03680
 H124 H 0.58808 0.28967 0.96424
 H125 H 0.54637 0.25805 0.96579
 C126 C 0.42411 0.31975 1.00387
 C127 C 0.49710 0.19426 1.07648
 C128 C 0.57807 0.31241 1.00043
 C129 C 0.49098 0.19059 0.93060
 C130 C 0.47967 0.81101 -0.03295
 H131 H 0.46394 0.81034 -0.01770
 C132 C 0.47635 0.82954 -0.05453
 H133 H 0.45800 0.84319 -0.05570
 C134 C 0.52335 0.79487 -0.04918
 H135 H 0.54184 0.78164 -0.04679
 C136 C 0.52094 0.81320 -0.07105
 H137 H 0.53744 0.81352 -0.08559
 N138 N 0.50280 0.79407 -0.03074
 C139 C 0.47801 0.72465 0.02159
 H140 H 0.49486 0.72611 0.03654
 C141 C 0.45740 0.70336 0.02341
 H142 H 0.45832 0.68875 0.04009
 C143 C 0.45642 0.74218 -0.01820
 H144 H 0.45640 0.75702 -0.03464
 C145 C 0.43537 0.72119 -0.01717
 H146 H 0.41932 0.72012 -0.03293
 Zn147 Zn 0.50641 0.77123 0.00016
 N148 N 0.47702 0.74370 0.00119
 C149 C 0.48496 0.79245 0.04869
 N150 N 0.50484 0.79598 0.02985
 C151 C 0.52349 0.81816 0.03104
 C152 C 0.52299 0.83761 0.05208
 C153 C 0.48373 0.81138 0.07010
 C154 C 0.54403 0.73055 -0.01810
 C155 C 0.56781 0.71310 -0.01747
 C156 C 0.58504 0.73848 0.02166
 C157 C 0.56086 0.75538 0.02033
 N158 N 0.54092 0.75109 0.00069
 H159 H 0.46990 0.77510 0.04712
 H160 H 0.53871 0.82077 0.01549
 H161 H 0.53781 0.85531 0.05248
 H162 H 0.46803 0.80796 0.08510
 H163 H 0.52759 0.72725 -0.03321
 H164 H 0.56935 0.69626 -0.03211
 H165 H 0.60063 0.74219 0.03749
 H166 H 0.55779 0.77144 0.03539
 C167 C 0.43567 0.70143 0.00386
 C168 C 0.49722 0.83090 -0.07388
 C169 C 0.58860 0.71674 0.00279
 C170 C 0.50292 0.83433 0.07201
 C171 C 1.03027 0.47197 0.20241
 H172 H 1.01503 0.45482 0.20427
 C173 C 1.05047 0.47077 0.18269
 H174 H 1.05095 0.45230 0.16975
 C175 C 1.04778 0.51696 0.21697
 H176 H 1.04615 0.53530 0.22984
 C177 C 1.06833 0.51666 0.19747
 H178 H 1.08240 0.53484 0.19566
 N179 N 1.02934 0.49474 0.21914
 C180 C 0.98130 0.46203 0.28579
 H181 H 0.96453 0.47759 0.28604
 C182 C 0.98235 0.44044 0.30491
 H183 H 0.96599 0.43926 0.31956
 C184 C 1.02307 0.44496 0.26642
 H185 H 1.03930 0.44723 0.25182
 C186 C 1.02494 0.42300 0.28519
 H187 H 1.04265 0.40854 0.28475
 Zn188 Zn 0.99936 0.49533 0.24342
 N189 N 1.00140 0.46386 0.26700
 C190 C 0.94602 0.47300 0.22444
 N191 N 0.96548 0.49436 0.22257
 C192 C 0.96220 0.51562 0.20439
 C193 C 0.93851 0.51617 0.18729
 C194 C 0.92193 0.47270 0.20766
 C195 C 1.02431 0.53392 0.28004
 C196 C 1.02527 0.55696 0.29772
 C197 C 0.97725 0.56829 0.28423
 C198 C 0.97737 0.54535 0.26649
 N199 N 1.00066 0.52865 0.26478
 H200 H 0.94927 0.45599 0.23866
 H201 H 0.97826 0.53207 0.20306
 H202 H 0.93666 0.53303 0.17264
 H203 H 0.90657 0.45564 0.20950
 H204 H 1.04227 0.51988 0.27880
 H205 H 1.04407 0.56062 0.31006
 H206 H 0.95840 0.58110 0.28571
 H207 H 0.95850 0.54036 0.25477
 C208 C 1.00449 0.42063 0.30489
 C209 C 1.06975 0.49342 0.17987
 C210 C 1.00137 0.57419 0.30020
 C211 C 0.91798 0.49449 0.18873
 C212 C -0.03718 0.46125 0.79030
 H213 H -0.02046 0.44571 0.78932
 C214 C -0.05811 0.45825 0.80918
 H215 H -0.05762 0.43996 0.82232
 C216 C -0.05762 0.50425 0.77457
 H217 H -0.05685 0.52258 0.76159
 C218 C -0.07891 0.50216 0.79328
 H219 H -0.09435 0.51901 0.79442
 N220 N -0.03724 0.48400 0.77354
 C221 C 0.01835 0.45746 0.71027
 H222 H 0.03366 0.47471 0.71118
 C223 C 0.02046 0.43625 0.69091
 H224 H 0.03777 0.43707 0.67725
 C225 C -0.02303 0.43580 0.72685
 H226 H -0.04039 0.43614 0.74040
 C227 C -0.02174 0.41414 0.70780
 H228 H -0.03818 0.39796 0.70697
 Zn229 Zn -0.00578 0.48813 0.75137
 N230 N -0.00311 0.45687 0.72775
 C231 C 0.04732 0.47092 0.77409
 N232 N 0.02640 0.49064 0.77440
 C233 C 0.02659 0.51193 0.79279
 C234 C 0.04849 0.51410 0.81184
 C235 C 0.06964 0.47224 0.79287
 C236 C -0.03127 0.52205 0.71222
 C237 C -0.03400 0.54473 0.69439
 C238 C 0.00900 0.56524 0.71337
 C239 C 0.01086 0.54217 0.73092
 N240 N -0.00914 0.52118 0.73002
 H241 H 0.04638 0.45371 0.75977
 H242 H 0.00944 0.52708 0.79280
 H243 H 0.04830 0.53136 0.82617
 H244 H 0.08573 0.45594 0.79274
 H245 H -0.04654 0.50476 0.71159
 H246 H -0.05141 0.54465 0.67995
 H247 H 0.02516 0.58171 0.71428
 H248 H 0.02865 0.54077 0.74478
 C249 C 0.00010 0.41431 0.68935
 C250 C -0.07911 0.47912 0.81117
 C251 C -0.01355 0.56661 0.69466
 C252 C 0.07030 0.49393 0.81223
 C253 C 0.05402 0.22558 0.51514
 C254 C 0.07620 0.20616 0.51384
 C255 C 0.07856 0.18809 0.49182
 C256 C 0.05866 0.19020 0.47069
 C257 C 0.03673 0.20995 0.47175
 C258 C 0.03418 0.22849 0.49376
 C259 C 0.10195 0.16731 0.49155
 C260 C 0.09909 0.14135 0.48056
 C261 C 0.12179 0.11980 0.48189
 C262 C 0.11434 0.09083 0.48315
 C263 C 0.13520 0.06991 0.48466
 C264 C 0.16396 0.07753 0.48434
 C265 C 0.17146 0.10649 0.48249
 C266 C 0.15058 0.12746 0.48140
 H267 H 0.05232 0.23754 0.53340
 H268 H 0.09109 0.20461 0.53054
 H269 H 0.06009 0.17676 0.45325
 H270 H 0.02151 0.21078 0.45527
 H271 H 0.12124 0.17275 0.50256
 H272 H 0.07877 0.13483 0.47205
 H273 H 0.09230 0.08441 0.48330
 H274 H 0.12887 0.04771 0.48570
 H275 H 0.19349 0.11289 0.48217
 H276 H 0.15700 0.14958 0.47978
 C277 C 0.74602 0.56490 -0.02208
 C278 C 0.73150 0.59077 -0.02187
 C279 C 0.70950 0.59525 -0.00418
 C280 C 0.70295 0.57354 0.01401
 C281 C 0.71749 0.54779 0.01384
 C282 C 0.73816 0.54225 -0.00522
 C283 C 0.69265 0.62177 -0.00658
 C284 C 0.67609 0.63143 0.01273
 C285 C 0.65595 0.65541 0.00943
 C286 C 0.64355 0.66651 0.03229
 C287 C 0.62232 0.68699 0.03018
 C288 C 0.61290 0.69687 0.00507
 C289 C 0.62580 0.68637 -0.01781
 C290 C 0.64698 0.66578 -0.01572
 H291 H 0.76334 0.56293 -0.03555
 H292 H 0.73737 0.60733 -0.03576
 H293 H 0.68597 0.57573 0.02783
 H294 H 0.71172 0.53148 0.02801
 H295 H 0.69395 0.63338 -0.02511
 H296 H 0.67687 0.62121 0.03204
 H297 H 0.64979 0.65877 0.05189
 H298 H 0.61254 0.69425 0.04820
 H299 H 0.61922 0.69374 -0.03743
 H300 H 0.65539 0.65750 -0.03395
 C301 C 0.93959 -0.26116 0.48498
 C302 C 0.91483 -0.24517 0.48656
 C303 C 0.91270 -0.22317 0.50534
 C304 C 0.93557 -0.21806 0.52315
 C305 C 0.96025 -0.23394 0.52156
 C306 C 0.96340 -0.25479 0.50155
 C307 C 0.88752 -0.20449 0.50434
 C308 C 0.87973 -0.18834 0.52494
 C309 C 0.85768 -0.16608 0.52292
 C310 C 0.84597 -0.15577 0.54642
 C311 C 0.82734 -0.13278 0.54571
 C312 C 0.82016 -0.11943 0.52143
 C313 C 0.83145 -0.13007 0.49782
 C314 C 0.85006 -0.15307 0.49853
 H315 H 0.93976 -0.27832 0.47064
 H316 H 0.89732 -0.24983 0.47287
 H317 H 0.93514 -0.20105 0.53768
 H318 H 0.97764 -0.22904 0.53531
 H319 H 0.87540 -0.20384 0.48577
 H320 H 0.89010 -0.19111 0.54423
 H321 H 0.85163 -0.16525 0.56549
 H322 H 0.81875 -0.12526 0.56421
 H323 H 0.82680 -0.11990 0.47887
 H324 H 0.85930 -0.15964 0.48005
 C325 C 0.28346 0.48687 0.97618
 C326 C 0.30434 0.46611 0.97468
 C327 C 0.31075 0.44865 0.99660
 C328 C 0.29637 0.45297 1.02041
 C329 C 0.27553 0.47384 1.02197
 C330 C 0.26792 0.49061 0.99956
 C331 C 0.33358 0.42738 0.99435
 C332 C 0.33530 0.40384 1.00944
 C333 C 0.35821 0.38265 1.00716
 C334 C 0.35317 0.35448 1.01525
 C335 C 0.37441 0.33401 1.01392
 C336 C 0.40132 0.34135 1.00471
 C337 C 0.40644 0.36963 0.99682
 C338 C 0.38518 0.39009 0.99808
 H339 H 0.27939 0.50022 0.95893
 H340 H 0.31560 0.46374 0.95630
 H341 H 0.30181 0.44099 1.03820
 H342 H 0.26621 0.47724 1.04112
 H343 H 0.34867 0.43072 0.97879
 H344 H 0.31866 0.39905 1.02318
 H345 H 0.33265 0.34825 1.02247
 H346 H 0.36968 0.31236 1.01991
 H347 H 0.42713 0.37614 0.99024
 H348 H 0.39022 0.41179 0.99257
 C349 C 0.96256 0.22422 0.47468
 C350 C 0.94019 0.20474 0.47638
 C351 C 0.93785 0.18694 0.49861
 C352 C 0.95829 0.18905 0.51932
 C353 C 0.98046 0.20877 0.51781
 C354 C 0.98264 0.22744 0.49586
 C355 C 0.91360 0.16690 0.49981
 C356 C 0.91514 0.14163 0.51220
 C357 C 0.89107 0.12131 0.51268
 C358 C 0.89656 0.09197 0.51322
 C359 C 0.87433 0.07220 0.51360
 C360 C 0.84617 0.08143 0.51402
 C361 C 0.84065 0.11082 0.51409
 C362 C 0.86288 0.13060 0.51331
 H363 H 0.96405 0.23622 0.45642
 H364 H 0.92492 0.20316 0.45997
 H365 H 0.95696 0.17587 0.53694
 H366 H 0.99591 0.20981 0.53410
 H367 H 0.89444 0.17248 0.48878
 H368 H 0.93516 0.13471 0.52083
 H369 H 0.91811 0.08433 0.51304
 H370 H 0.87915 0.04965 0.51389
 H371 H 0.81912 0.11846 0.51442
 H372 H 0.85798 0.15310 0.51362
 C373 C 0.26790 0.55953 -0.02285
 C374 C 0.28712 0.58228 -0.02337
 C375 C 0.30530 0.58794 -0.00149
 C376 C 0.30346 0.57071 0.02129
 C377 C 0.28422 0.54803 0.02187
 C378 C 0.26552 0.54230 0.00009
 C379 C 0.32584 0.61185 -0.00318
 C380 C 0.35054 0.61243 0.01057
 C381 C 0.37178 0.63564 0.00829
 C382 C 0.40009 0.62983 0.01517
 C383 C 0.42081 0.65108 0.01359
 C384 C 0.41364 0.67879 0.00531
 C385 C 0.38524 0.68472 -0.00134
 C386 C 0.36449 0.66343 0.00021
 H387 H 0.25569 0.55515 -0.04090
 H388 H 0.28835 0.59504 -0.04130
 H389 H 0.31673 0.57469 0.03880
 H390 H 0.28390 0.53474 0.03949
 H391 H 0.32112 0.62847 -0.01754
 H392 H 0.35639 0.59438 0.02291
 H393 H 0.40626 0.60866 0.02158
 H394 H 0.44254 0.64572 0.01856
 H395 H 0.37895 0.70600 -0.00724
 H396 H 0.34278 0.66905 -0.00440
 C397 C 0.01168 -0.22012 0.48778
 C398 C 0.03394 -0.20104 0.48431
 C399 C 0.06206 -0.20975 0.48754
 C400 C 0.06747 -0.23857 0.49345
 C401 C 0.04504 -0.25778 0.49695
 C402 C 0.01665 -0.24861 0.49567
 C403 C 0.08443 -0.18762 0.48501
 C404 C 0.11225 -0.19258 0.48360
 C405 C 0.13330 -0.16905 0.48175
 C406 C 0.16090 -0.17315 0.49187
 C407 C 0.18075 -0.15087 0.49169
 C408 C 0.17343 -0.12402 0.48120
 C409 C 0.14607 -0.12029 0.47021
 C410 C 0.12635 -0.14255 0.47025
 H411 H -0.00940 -0.21219 0.48386
 H412 H 0.02907 -0.17921 0.47895
 H413 H 0.08878 -0.24644 0.49584
 H414 H 0.04983 -0.27985 0.50137
 H415 H 0.07722 -0.16577 0.48475
 H416 H 0.12021 -0.21408 0.48486
 H417 H 0.16695 -0.19348 0.50044
 H418 H 0.20181 -0.15466 0.49982
 H419 H 0.13959 -0.09992 0.46208
 H420 H 0.10571 -0.13881 0.46121
 C421 C 0.70219 0.49274 0.98378
 C422 C 0.68256 0.47047 0.98245
 C423 C 0.69030 0.44261 0.98938
 C424 C 0.71874 0.43730 0.99657
 C425 C 0.73849 0.45968 0.99776
 C426 C 0.73025 0.48815 0.99302
 C427 C 0.66763 0.42051 0.98940
 C428 C 0.67141 0.39276 0.99485
 C429 C 0.64732 0.37243 0.99632
 C430 C 0.65147 0.34354 0.99038
 C431 C 0.62905 0.32397 0.99163
 C432 C 0.60211 0.33289 0.99924
 C433 C 0.59814 0.36172 1.00564
 C434 C 0.62047 0.38122 1.00436
 H435 H 0.69509 0.51351 0.97727
 H436 H 0.66104 0.47516 0.97604
 H437 H 0.72600 0.41615 1.00157
 H438 H 0.76026 0.45487 1.00310
 H439 H 0.64642 0.42781 0.98471
 H440 H 0.69242 0.38425 0.99775
 H441 H 0.67204 0.33615 0.98452
 H442 H 0.63286 0.30180 0.98696
 H443 H 0.57763 0.36934 1.01140
 H444 H 0.61664 0.40308 1.01006
 C445 C 0.53612 0.05373 1.23395
 C446 C 0.53684 0.07539 1.21487
 C447 C 0.51285 0.08171 1.19903
 C448 C 0.48807 0.06553 1.20249
 C449 C 0.48728 0.04404 1.22167
 C450 C 0.51101 0.03816 1.23835
 C451 C 0.51526 0.10380 1.17800
 C452 C 0.49297 0.11570 1.16530
 C453 C 0.49526 0.13652 1.14317
 C454 C 0.47115 0.15211 1.13553
 C455 C 0.47179 0.17101 1.11405
 C456 C 0.49661 0.17477 1.09970
 C457 C 0.52081 0.15932 1.10732
 C458 C 0.52014 0.14025 1.12869
 H459 H 0.55564 0.04873 1.24453
 H460 H 0.55650 0.08686 1.21209
 H461 H 0.46945 0.06852 1.18991
 H462 H 0.46810 0.03147 1.22317
 H463 H 0.53640 0.11071 1.17333
 H464 H 0.47184 0.11056 1.17155
 H465 H 0.45165 0.14957 1.14616
 H466 H 0.45287 0.18281 1.10873
 H467 H 0.54008 0.16141 1.09628
 H468 H 0.53897 0.12807 1.13316
 C469 C 0.01449 0.72063 0.54723
 C470 C 0.01563 0.70516 0.57104
 C471 C -0.00360 0.68292 0.57557
 C472 C -0.02433 0.67663 0.55585
 C473 C -0.02547 0.69203 0.53209
 C474 C -0.00533 0.71350 0.52668
 C475 C -0.00055 0.66581 0.60032
 C476 C -0.02187 0.65071 0.61058
 C477 C -0.01859 0.63114 0.63365
 C478 C -0.04292 0.62226 0.64684
 C479 C -0.04122 0.60192 0.66714
 C480 C -0.01510 0.58986 0.67463
 C481 C 0.00937 0.59912 0.66181
 C482 C 0.00767 0.61943 0.64147
 H483 H 0.02901 0.73834 0.54541
 H484 H 0.03154 0.71073 0.58611
 H485 H -0.03931 0.65936 0.55823
 H486 H -0.04178 0.68662 0.51736
 H487 H 0.01994 0.66608 0.61040
 H488 H -0.04294 0.65274 0.60189
 H489 H -0.06343 0.63079 0.64116
 H490 H -0.06041 0.59542 0.67683
 H491 H 0.02971 0.58982 0.66676
 H492 H 0.02683 0.62494 0.63133
 C493 C 0.52032 0.98744 -0.21833
 C494 C 0.52363 0.96613 -0.19913
 C495 C 0.50143 0.94720 -0.19388
 C496 C 0.47583 0.94986 -0.20850
 C497 C 0.47253 0.97114 -0.22780
 C498 C 0.49505 0.98986 -0.23374
 C499 C 0.50598 0.92498 -0.17322
 C500 C 0.48493 0.91310 -0.15952
 C501 C 0.48921 0.89151 -0.13817
 C502 C 0.46573 0.87554 -0.13008
 C503 C 0.46837 0.85563 -0.10948
 C504 C 0.49459 0.85128 -0.09641
 C505 C 0.51814 0.86717 -0.10448
 C506 C 0.51551 0.88716 -0.12502
 H507 H 0.53771 1.00214 -0.22133
 H508 H 0.54351 0.96474 -0.18800
 H509 H 0.45826 0.93551 -0.20530
 H510 H 0.45200 0.97303 -0.23754
 H511 H 0.52763 0.91900 -0.16891
 H512 H 0.46336 0.91945 -0.16385
 H513 H 0.44520 0.87850 -0.13972
 H514 H 0.44988 0.84354 -0.10384
 H515 H 0.53850 0.86471 -0.09440
 H516 H 0.53401 0.89954 -0.12987
 C517 C 0.98243 0.28702 0.46809
 C518 C 0.98036 0.30717 0.44769
 C519 C 1.00202 0.31034 0.42941
 C520 C 1.02621 0.29328 0.43237
 C521 C 1.02834 0.27310 0.45283
 C522 C 1.00609 0.26893 0.47072
 C523 C 0.99924 0.33278 0.40869
 C524 C 1.01362 0.33285 0.38598
 C525 C 1.01074 0.35561 0.36556
 C526 C 1.01746 0.34946 0.33911
 C527 C 1.01532 0.37044 0.31937
 C528 C 1.00661 0.39817 0.32573
 C529 C 1.00027 0.40444 0.35229
 C530 C 1.00239 0.38348 0.37201
 H531 H 0.96541 0.28551 0.48204
 H532 H 0.96175 0.32046 0.44630
 H533 H 1.04404 0.29607 0.41955
 H534 H 1.04797 0.26161 0.45490
 H535 H 0.98377 0.34922 0.41196
 H536 H 1.02708 0.31504 0.38143
 H537 H 1.02416 0.32825 0.33364
 H538 H 1.02019 0.36487 0.29907
 H539 H 0.99421 0.42577 0.35798
 H540 H 0.99809 0.38944 0.39231
 C541 C 0.53784 0.98076 0.22514
 C542 C 0.53964 0.95962 0.20568
 C543 C 0.51548 0.94449 0.19699
 C544 C 0.48947 0.95056 0.20856
 C545 C 0.48767 0.97162 0.22812
 C546 C 0.51200 0.98663 0.23741
 C547 C 0.51829 0.92267 0.17588
 C548 C 0.49713 0.91562 0.15873
 C549 C 0.49958 0.89442 0.13694
 C550 C 0.47463 0.88360 0.12488
 C551 C 0.47569 0.86403 0.10394
 C552 C 0.50180 0.85491 0.09445
 C553 C 0.52681 0.86584 0.10637
 C554 C 0.52577 0.88544 0.12731
 H555 H 0.55675 0.99278 0.23055
 H556 H 0.55990 0.95555 0.19690
 H557 H 0.47040 0.93911 0.20265
 H558 H 0.46695 0.97646 0.23540
 H559 H 0.53880 0.91295 0.17420
 H560 H 0.47683 0.92584 0.16049
 H561 H 0.45418 0.89034 0.13166
 H562 H 0.45603 0.85641 0.09488
 H563 H 0.54726 0.85911 0.09961
 H564 H 0.54556 0.89372 0.13539
 C565 C 0.03276 0.28762 0.52251
 C566 C 0.03423 0.30729 0.54341
 C567 C 0.01238 0.30908 0.56162
 C568 C -0.01146 0.29132 0.55798
 C569 C -0.01298 0.27165 0.53705
 C570 C 0.00957 0.26865 0.51934
 C571 C 0.01438 0.33082 0.58308
 C572 C 0.00023 0.32887 0.60585
 C573 C 0.00148 0.35098 0.62701
 C574 C -0.00576 0.34336 0.65301
 C575 C -0.00588 0.36377 0.67333
 C576 C 0.00106 0.39236 0.66803
 C577 C 0.00822 0.40003 0.64198
 C578 C 0.00835 0.37963 0.62167
 H579 H 0.04992 0.28708 0.50865
 H580 H 0.05252 0.32125 0.54530
 H581 H -0.02949 0.29316 0.57066
 H582 H -0.03242 0.25962 0.53452
 H583 H 0.02889 0.34844 0.58027
 H584 H -0.01212 0.30987 0.60975
 H585 H -0.01133 0.32150 0.65763
 H586 H -0.01128 0.35714 0.69323
 H587 H 0.01301 0.42200 0.63710
 H588 H 0.01304 0.38664 0.60174
 C589 C 0.51411 0.06086 0.76725
 C590 C 0.51351 0.08325 0.78560
 C591 C 0.49073 0.08623 0.80260
 C592 C 0.46801 0.06690 0.80039
 C593 C 0.46835 0.04478 0.78178
 C594 C 0.49118 0.04148 0.76447
 C595 C 0.49146 0.10938 0.82264
 C596 C 0.48092 0.10605 0.84698
 C597 C 0.48348 0.12819 0.86792
 C598 C 0.48598 0.11968 0.89465
 C599 C 0.48868 0.13996 0.91497
 C600 C 0.48830 0.16920 0.90896
 C601 C 0.48516 0.17779 0.88225
 C602 C 0.48291 0.15748 0.86187
 H603 H 0.53312 0.05847 0.75605
 H604 H 0.53145 0.09771 0.78723
 H605 H 0.44992 0.06884 0.81303
 H606 H 0.45075 0.02988 0.78100
 H607 H 0.50306 0.12866 0.81799
 H608 H 0.47206 0.08560 0.85252
 H609 H 0.48620 0.09725 0.89979
 H610 H 0.49069 0.13282 0.93544
 H611 H 0.48476 0.20022 0.87715
 H612 H 0.48032 0.16471 0.84148
 C613 C 1.00125 0.68033 0.47804
 C614 C 1.00148 0.66244 0.45584
 C615 C 0.99567 0.67311 0.43029
 C616 C 0.99002 0.70228 0.42719
 C617 C 0.98921 0.72014 0.44949
 C618 C 0.99353 0.70931 0.47556
 C619 C 0.99438 0.65298 0.40762
 C620 C 1.00229 0.65981 0.38300
 C621 C 1.00130 0.63861 0.36116
 C622 C 1.02323 0.63778 0.34291
 C623 C 1.02330 0.61690 0.32296
 C624 C 1.00098 0.59706 0.32052
 C625 C 0.97854 0.59858 0.33820
 C626 C 0.97875 0.61905 0.35842
 H627 H 1.00735 0.67106 0.49700
 H628 H 1.00653 0.64012 0.45861
 H629 H 0.98540 0.71115 0.40766
 H630 H 0.98448 0.74248 0.44649
 H631 H 0.98812 0.63119 0.41180
 H632 H 1.01147 0.68060 0.37919
 H633 H 1.04069 0.65280 0.34455
 H634 H 1.04072 0.61624 0.30941
 H635 H 0.96114 0.58346 0.33677
 H636 H 0.96125 0.61962 0.37189
 C637 C 1.22342 0.53822 0.04208
 C638 C 1.20545 0.53667 0.06369
 C639 C 1.19078 0.51142 0.06933
 C640 C 1.19471 0.48748 0.05301
 C641 C 1.21272 0.48899 0.03144
 C642 C 1.22817 0.51410 0.02595
 C643 C 1.17178 0.51095 0.09239
 C644 C 1.14961 0.49310 0.09417
 C645 C 1.12981 0.49345 0.11660
 C646 C 1.10234 0.48262 0.11231
 C647 C 1.08292 0.48260 0.13280
 C648 C 1.09060 0.49317 0.15821
 C649 C 1.11825 0.50362 0.16266
 C650 C 1.13770 0.50369 0.14213
 H651 H 1.23290 0.55869 0.03785
 H652 H 1.20249 0.55556 0.07571
 H653 H 1.18415 0.46744 0.05690
 H654 H 1.21480 0.47032 0.01895
 H655 H 1.17527 0.52715 0.10751
 H656 H 1.14452 0.47876 0.07780
 H657 H 1.09575 0.47447 0.09290
 H658 H 1.06170 0.47473 0.12858
 H659 H 1.12501 0.51136 0.18215
 H660 H 1.15895 0.51131 0.14651
 C661 C 0.51864 0.03953 0.70895
 C662 C 0.53952 0.04071 0.68980
 C663 C 0.55842 0.01812 0.68691
 C664 C 0.55528 -0.00620 0.70292
 C665 C 0.53440 -0.00741 0.72205
 C666 C 0.51633 0.01594 0.72626
 C667 C 0.58000 0.01992 0.66607
 C668 C 0.60417 0.00512 0.66718
 C669 C 0.62559 0.00590 0.64613
 C670 C 0.65319 -0.00302 0.65256
 C671 C 0.67373 -0.00401 0.63308
 C672 C 0.66706 0.00373 0.60663
 C673 C 0.63947 0.01280 0.60018
 C674 C 0.61891 0.01378 0.61965
 H675 H 0.50419 0.05724 0.71039
 H676 H 0.54089 0.05936 0.67716
 H677 H 0.56828 -0.02480 0.70020
 H678 H 0.53210 -0.02718 0.73284
 H679 H 0.57615 0.03479 0.64993
 H680 H 0.60911 -0.00760 0.68467
 H681 H 0.65888 -0.00935 0.67274
 H682 H 0.69486 -0.01084 0.63873
 H683 H 0.63352 0.01832 0.57986
 H684 H 0.59770 0.01985 0.61361
 C685 C -0.24106 0.51183 0.94410
 C686 C -0.22509 0.50746 0.92144
 C687 C -0.19725 0.49757 0.92375
 C688 C -0.18584 0.49178 0.94931
 C689 C -0.20176 0.49618 0.97194
 C690 C -0.22926 0.50768 0.96994
 C691 C -0.18038 0.49492 0.89936
 C692 C -0.15772 0.47800 0.89778
 C693 C -0.13874 0.47754 0.87473
 C694 C -0.11089 0.46823 0.87902
 C695 C -0.09172 0.46846 0.85836
 C696 C -0.10004 0.47771 0.83273
 C697 C -0.12816 0.48633 0.82818
 C698 C -0.14737 0.48620 0.84893
 H699 H -0.26262 0.51910 0.94150
 H700 H -0.23455 0.51181 0.90199
 H701 H -0.16439 0.48437 0.95215
 H702 H -0.19225 0.49033 0.99094
 H703 H -0.18669 0.50798 0.88252
 H704 H -0.15173 0.46474 0.91459
 H705 H -0.10370 0.46138 0.89865
 H706 H -0.07014 0.46208 0.86270
 H707 H -0.13538 0.49303 0.80853
 H708 H -0.16889 0.49263 0.84455
 C709 C 0.46772 0.03552 0.27974
 C710 C 0.44477 0.03421 0.29667
 C711 C 0.43736 0.00858 0.30915
 C712 C 0.45332 -0.01592 0.30408
 C713 C 0.47629 -0.01460 0.28723
 C714 C 0.48343 0.01088 0.27397
 C715 C 0.41294 0.00843 0.32713
 C716 C 0.40909 -0.01128 0.34610
 C717 C 0.38498 -0.01125 0.36440
 C718 C 0.37742 -0.03695 0.37671
 C719 C 0.35545 -0.03787 0.39474
 C720 C 0.34070 -0.01299 0.40110
 C721 C 0.34830 0.01281 0.38888
 C722 C 0.37023 0.01372 0.37076
 H723 H 0.47340 0.05611 0.27174
 H724 H 0.43311 0.05351 0.30051
 H725 H 0.44818 -0.03629 0.31282
 H726 H 0.48854 -0.03372 0.28439
 H727 H 0.39796 0.02561 0.32475
 H728 H 0.42400 -0.02849 0.34855
 H729 H 0.38862 -0.05642 0.37240
 H730 H 0.35043 -0.05797 0.40418
 H731 H 0.33727 0.03232 0.39336
 H732 H 0.37590 0.03414 0.36237
 C733 C 0.20576 0.53747 0.97362
 C734 C 0.18473 0.53691 0.95357
 C735 C 0.18124 0.51303 0.93699
 C736 C 0.19854 0.48921 0.94156
 C737 C 0.21950 0.48970 0.96169
 C738 C 0.22434 0.51432 0.97748
 C739 C 0.15841 0.51308 0.91621
 C740 C 0.15904 0.49710 0.89404
 C741 C 0.13606 0.49698 0.87339
 C742 C 0.14235 0.48931 0.84718
 C743 C 0.12112 0.48848 0.82726
 C744 C 0.09304 0.49505 0.83322
 C745 C 0.08669 0.50234 0.85957
 C746 C 0.10791 0.50325 0.87944
 H747 H 0.20769 0.55620 0.98619
 H748 H 0.17115 0.55525 0.95098
 H749 H 0.19540 0.46978 0.93019
 H750 H 0.23125 0.47033 0.96514
 H751 H 0.14119 0.52782 0.91881
 H752 H 0.17758 0.48452 0.89015
 H753 H 0.16382 0.48416 0.84205
 H754 H 0.12675 0.48298 0.80714
 H755 H 0.06516 0.50677 0.86498
 H756 H 0.10201 0.50820 0.89959
 C757 C 0.53999 0.03685 0.29361
 C758 C 0.56043 0.03701 0.31420
 C759 C 0.57550 0.01225 0.32073
 C760 C 0.56907 -0.01299 0.30660
 C761 C 0.54873 -0.01311 0.28592
 C762 C 0.53453 0.01209 0.27827
 C763 C 0.59647 0.01342 0.34327
 C764 C 0.61619 -0.00652 0.34798
 C765 C 0.63606 -0.00562 0.37127
 C766 C 0.64648 -0.03142 0.38152
 C767 C 0.66485 -0.03164 0.40375
 C768 C 0.67354 -0.00597 0.41599
 C769 C 0.66372 0.01994 0.40533
 C770 C 0.64516 0.02015 0.38319
 H771 H 0.52830 0.05621 0.28964
 H772 H 0.56429 0.05658 0.32523
 H773 H 0.57886 -0.03302 0.31184
 H774 H 0.54365 -0.03333 0.27654
 H775 H 0.59529 0.03150 0.35660
 H776 H 0.61750 -0.02486 0.33504
 H777 H 0.64006 -0.05153 0.37250
 H778 H 0.67245 -0.05189 0.41128
 H779 H 0.67008 0.04003 0.41437
 H780 H 0.63829 0.04050 0.37534
 C781 C 0.79367 0.53164 0.02337
 C782 C 0.81055 0.53265 0.04655
 C783 C 0.80455 0.51511 0.06827
 C784 C 0.78031 0.49761 0.06687
 C785 C 0.76323 0.49675 0.04369
 C786 C 0.77042 0.51267 0.02091
 C787 C 0.82374 0.51621 0.09206
 C788 C 0.82742 0.49426 0.10890
 C789 C 0.84910 0.49465 0.13078
 C790 C 0.86149 0.46889 0.13893
 C791 C 0.88341 0.46869 0.15819
 C792 C 0.89319 0.49429 0.16990
 C793 C 0.87984 0.51992 0.16262
 C794 C 0.85801 0.52013 0.14333
 H795 H 0.79907 0.54543 0.00693
 H796 H 0.82866 0.54693 0.04735
 H797 H 0.77414 0.48499 0.08383
 H798 H 0.74419 0.48392 0.04406
 H799 H 0.83710 0.53495 0.09432
 H800 H 0.81616 0.47442 0.10515
 H801 H 0.85484 0.44896 0.12974
 H802 H 0.89333 0.44861 0.16323
 H803 H 0.88637 0.53990 0.17179
 H804 H 0.84818 0.54025 0.13833
 C805 C 0.44615 0.03462 0.72325
 C806 C 0.42359 0.03181 0.70485
 C807 C 0.41981 0.00675 0.68992
 C808 C 0.43864 -0.01589 0.69430
 C809 C 0.46113 -0.01315 0.71269
 C810 C 0.46511 0.01191 0.72799
 C811 C 0.39629 0.00507 0.66984
 C812 C 0.39747 -0.01111 0.64784
 C813 C 0.37501 -0.01201 0.62669
 C814 C 0.38233 -0.02062 0.60103
 C815 C 0.36197 -0.02206 0.58043
 C816 C 0.33363 -0.01525 0.58507
 C817 C 0.32618 -0.00685 0.61084
 C818 C 0.34662 -0.00531 0.63148
 H819 H 0.44899 0.05502 0.73298
 H820 H 0.40952 0.04969 0.70165
 H821 H 0.43611 -0.03582 0.68361
 H822 H 0.47568 -0.03076 0.71500
 H823 H 0.37852 0.01912 0.67242
 H824 H 0.41653 -0.02295 0.64414
 H825 H 0.40400 -0.02597 0.59681
 H826 H 0.36856 -0.02815 0.56075
 H827 H 0.30444 -0.00195 0.61516
 H828 H 0.33997 0.00056 0.65118
   
