data_POSCAR
  _audit_creation_date              2014-09-24
  _audit_creation_method            'ToBaCCo'
  _symmetry_space_group_name_H-M    'P1'
  _symmetry_Int_Tables_number       1
  _symmetry_cell_setting            triclinic
  loop_
  _symmetry_equiv_pos_as_xyz
 x,y,z
_cell_length_a 25.2484
_cell_length_b 25.4830
_cell_length_c 72.3006
_cell_angle_alpha 85.801700
_cell_angle_beta 90.058500
_cell_angle_gamma 122.789800
loop_
  _atom_site_label
  _atom_site_type_symbol
  _atom_site_fract_x
  _atom_site_fract_y
  _atom_site_fract_z
C1 C -0.03290 0.08017 0.53166
 H2 H 0.01245 0.08511 0.53143
 C3 C -0.04417 0.11478 0.54320
 H4 H -0.00738 0.14641 0.55193
 C5 C -0.13648 0.03186 0.52074
 H6 H -0.17224 -0.00098 0.51204
 C7 C -0.15036 0.06462 0.53251
 H8 H -0.19681 0.05728 0.53282
 N9 N -0.07834 0.04047 0.52053
 C10 C 0.01435 -0.04885 0.52511
 H11 H 0.05527 -0.01262 0.51681
 C12 C 0.01999 -0.08895 0.53809
 H13 H 0.06515 -0.08396 0.53958
 C14 C -0.09406 -0.09882 0.53384
 H15 H -0.13818 -0.10177 0.53223
 C16 C -0.09085 -0.14045 0.54664
 H17 H -0.13267 -0.17547 0.55494
 Zn18 Zn -0.05537 -0.00351 0.50607
 N19 N -0.04242 -0.05522 0.52306
 C20 C 0.03569 0.11518 0.48875
 N21 N 0.01789 0.05419 0.49107
 C22 C 0.04648 0.03257 0.48093
 C23 C 0.09491 0.07296 0.46777
 C24 C 0.08323 0.15683 0.47563
 C25 C -0.13326 -0.02330 0.47616
 C26 C -0.17261 -0.05627 0.46203
 C27 C -0.18298 -0.15026 0.47622
 C28 C -0.14283 -0.11523 0.48986
 N29 N -0.11854 -0.05288 0.48957
 H30 H 0.01092 0.13107 0.49635
 H31 H 0.03008 -0.01656 0.48260
 H32 H 0.11591 0.05477 0.45937
 H33 H 0.09557 0.20477 0.47358
 H34 H -0.11299 0.02653 0.47617
 H35 H -0.18377 -0.03039 0.45204
 H36 H -0.19706 -0.19864 0.47669
 H37 H -0.12870 -0.13770 0.50012
 C38 C -0.03343 -0.13599 0.54879
 C39 C -0.10345 0.10703 0.54374
 C40 C -0.19789 -0.12120 0.46148
 C41 C 0.11267 0.13557 0.46474
 C42 C 1.16529 0.08308 0.13901
 H43 H 1.17589 0.12783 0.14294
 C44 C 1.20360 0.08099 0.12564
 H45 H 1.24450 0.12445 0.11965
 C46 C 1.09761 -0.02770 0.14166
 H47 H 1.05508 -0.06963 0.14760
 C48 C 1.13463 -0.03194 0.12819
 H49 H 1.12030 -0.07743 0.12385
 N50 N 1.11294 0.02937 0.14648
 C51 C 0.96539 0.06854 0.15166
 H52 H 0.95955 0.06994 0.16639
 C53 C 0.92390 0.07195 0.13947
 H54 H 0.88685 0.07674 0.14485
 C55 C 1.01660 0.05489 0.12677
 H56 H 1.05147 0.04667 0.12174
 C57 C 0.97619 0.05763 0.11424
 H58 H 0.98096 0.05213 0.09974
 Zn59 Zn 1.05772 0.03894 0.16137
 N60 N 1.00960 0.05841 0.14521
 C61 C 1.09647 0.14802 0.18102
 N62 N 1.10753 0.10320 0.17713
 C63 C 1.15405 0.09969 0.18538
 C64 C 1.18916 0.13966 0.19883
 C65 C 1.13051 0.18903 0.19455
 C66 C 1.02798 -0.05801 0.18926
 C67 C 0.98932 -0.10634 0.20282
 C68 C 0.89896 -0.11148 0.18964
 C69 C 0.93923 -0.06367 0.17622
 N70 N 1.00276 -0.03609 0.17671
 H71 H 1.06011 0.15092 0.17414
 H72 H 1.16331 0.06497 0.18170
 H73 H 1.22526 0.13521 0.20541
 H74 H 1.11928 0.22256 0.19813
 H75 H 1.07837 -0.03674 0.18916
 H76 H 1.01068 -0.12205 0.21289
 H77 H 0.84906 -0.12957 0.18960
 H78 H 0.91951 -0.04711 0.16592
 C79 C 0.92799 0.06430 0.12063
 C80 C 1.18749 0.02311 0.11965
 C81 C 0.92397 -0.13225 0.20357
 C82 C 1.17631 0.18379 0.20400
 C83 C 0.09955 0.94013 0.85232
 H84 H 0.06140 0.89156 0.85221
 C85 C 0.15201 0.95573 0.86263
 H86 H 0.15384 0.91880 0.87040
 C87 C 0.14111 1.04731 0.84335
 H88 H 0.13606 1.08278 0.83604
 C89 C 0.19420 1.06512 0.85378
 H90 H 0.23004 1.11436 0.85435
 N91 N 0.09470 0.98566 0.84307
 C92 C -0.09870 0.93795 0.84610
 H93 H -0.11149 0.93414 0.83175
 C94 C -0.13829 0.93814 0.85962
 H95 H -0.18100 0.93454 0.85521
 C96 C -0.02429 0.95348 0.86850
 H97 H 0.02038 0.96013 0.87200
 C98 C -0.06174 0.95470 0.88234
 H99 H -0.04554 0.95961 0.89635
 Zn100 Zn 0.01680 0.95885 0.83197
 N101 N -0.04250 0.94639 0.85069
 C102 C -0.07135 0.84047 0.81836
 N103 N -0.00936 0.88442 0.82045
 C104 C 0.03694 0.88046 0.81244
 C105 C 0.02183 0.83137 0.80168
 C106 C -0.08860 0.79092 0.80744
 C107 C 0.02976 1.07285 0.81878
 C108 C 0.02563 1.11339 0.80559
 C109 C 0.01141 1.04453 0.78212
 C110 C 0.01608 1.00565 0.79567
 N111 N 0.02400 1.01969 0.81366
 H112 H -0.10742 0.84489 0.82461
 H113 H 0.08587 0.91693 0.81379
 H114 H 0.05945 0.83033 0.79490
 H115 H -0.13803 0.75716 0.80545
 H116 H 0.03482 1.08234 0.83323
 H117 H 0.02790 1.15429 0.80995
 H118 H 0.00381 1.03185 0.76795
 H119 H 0.01124 0.96314 0.79185
 C120 C -0.11910 0.94894 0.87805
 C121 C 0.19963 1.01892 0.86374
 C122 C 0.01471 1.09839 0.78708
 C123 C -0.04157 0.78650 0.79877
 C124 C 0.41692 0.04418 -0.01024
 C125 C 0.45276 0.05203 -0.02620
 C126 C 0.50646 0.04905 -0.02438
 C127 C 0.52268 0.03444 -0.00692
 C128 C 0.48447 0.02498 0.00884
 C129 C 0.43294 0.03169 0.00736
 C130 C 0.57847 0.02829 -0.00514
 C131 C 0.60865 0.03639 0.01188
 C132 C 0.65795 0.02659 0.01391
 C133 C 0.68061 0.01319 -0.00150
 C134 C 0.65438 0.00851 -0.01885
 C135 C 0.60191 0.01369 -0.02040
 H136 H 0.37505 0.04578 -0.01155
 H137 H 0.53540 0.05874 -0.03674
 H138 H 0.49444 0.01266 0.02242
 H139 H 0.59391 0.04955 0.02376
 H140 H 0.71955 0.00683 0.00003
 H141 H 0.58019 0.00679 -0.03363
 C142 C -0.06272 0.59272 0.67238
 C143 C -0.07601 0.55373 0.68873
 C144 C -0.08263 0.49562 0.68779
 C145 C -0.07414 0.47685 0.67075
 C146 C -0.05970 0.51754 0.65457
 C147 C -0.05517 0.57472 0.65524
 C148 C -0.08029 0.41526 0.66980
 C149 C -0.09925 0.38386 0.65344
 C150 C -0.10292 0.32732 0.65218
 C151 C -0.09029 0.30031 0.66771
 C152 C -0.07269 0.32966 0.68431
 C153 C -0.06658 0.38763 0.68513
 H154 H -0.05841 0.63725 0.67298
 H155 H -0.09563 0.46487 0.70040
 H156 H -0.05084 0.50572 0.64135
 H157 H -0.11169 0.40274 0.64157
 H158 H -0.09176 0.25736 0.66663
 H159 H -0.05098 0.41096 0.69777
 C160 C 0.65300 0.66927 0.33317
 C161 C 0.63687 0.63474 0.31751
 C162 C 0.57978 0.57581 0.31817
 C163 C 0.53693 0.55297 0.33364
 C164 C 0.55376 0.58945 0.34890
 C165 C 0.61244 0.64621 0.34909
 C166 C 0.47485 0.49152 0.33392
 C167 C 0.44480 0.45605 0.35089
 C168 C 0.38493 0.40067 0.35131
 C169 C 0.35637 0.37800 0.33467
 C170 C 0.38662 0.41019 0.31756
 C171 C 0.44469 0.46791 0.31727
 H172 H 0.69734 0.71405 0.33307
 H173 H 0.56946 0.54752 0.30663
 H174 H 0.52117 0.57438 0.36074
 H175 H 0.46703 0.47140 0.36392
 H176 H 0.31045 0.33456 0.33506
 H177 H 0.46624 0.49367 0.30400
 C178 C -0.12251 0.20897 0.58499
 C179 C -0.16252 0.14276 0.58594
 C180 C -0.15983 0.10990 0.57156
 C181 C -0.11566 0.14193 0.55664
 C182 C -0.07706 0.20740 0.55549
 C183 C -0.08081 0.24071 0.56935
 C184 C -0.12277 0.24184 0.60134
 C185 C -0.08506 0.30750 0.60175
 C186 C -0.08132 0.33530 0.61805
 C187 C -0.11515 0.29849 0.63431
 C188 C -0.15620 0.23351 0.63370
 C189 C -0.16040 0.20503 0.61738
 C190 C -0.20206 0.10952 0.60173
 C191 C -0.20045 0.13991 0.61720
 H192 H -0.23286 0.05891 0.60245
 H193 H -0.23008 0.11181 0.62936
 H194 H -0.18887 0.05911 0.57260
 H195 H -0.04244 0.23269 0.54407
 H196 H -0.04953 0.38558 0.61816
 H197 H -0.18347 0.20492 0.64615
 H198 H -0.04875 0.29092 0.56792
 H199 H -0.05690 0.33813 0.58980
 C200 C 0.79982 0.75005 0.25045
 C201 C 0.86453 0.79392 0.25291
 C202 C 0.90517 0.83044 0.23752
 C203 C 0.88272 0.82338 0.21948
 C204 C 0.81941 0.77670 0.21702
 C205 C 0.77846 0.74059 0.23224
 C206 C 0.75683 0.71663 0.26738
 C207 C 0.69081 0.67772 0.26655
 C208 C 0.65245 0.65065 0.28277
 C209 C 0.67867 0.66075 0.30030
 C210 C 0.74463 0.69831 0.30122
 C211 C 0.78353 0.72727 0.28501
 C212 C 0.88810 0.80197 0.27074
 C213 C 0.84865 0.76857 0.28641
 H214 H 0.93784 0.83493 0.27262
 H215 H 0.86919 0.77679 0.29990
 H216 H 0.95377 0.86626 0.23977
 H217 H 0.80106 0.76853 0.20326
 H218 H 0.60182 0.62318 0.28152
 H219 H 0.76588 0.70604 0.31460
 H220 H 0.73025 0.70598 0.22946
 H221 H 0.66764 0.66915 0.25356
 C222 C 0.33476 0.05214 -0.09497
 C223 C 0.30656 0.08746 -0.09622
 C224 C 0.26600 0.07969 -0.11058
 C225 C 0.25137 0.03564 -0.12346
 C226 C 0.28126 0.00257 -0.12265
 C227 C 0.32276 0.01093 -0.10870
 C228 C 0.37266 0.05715 -0.07840
 C229 C 0.40096 0.02252 -0.07553
 C230 C 0.42962 0.02342 -0.05893
 C231 C 0.43121 0.05908 -0.04481
 C232 C 0.40683 0.09689 -0.04801
 C233 C 0.37742 0.09597 -0.06460
 C234 C 0.31633 0.12785 -0.08261
 C235 C 0.35076 0.13180 -0.06710
 H236 H 0.29518 0.15526 -0.08363
 H237 H 0.35512 0.16216 -0.05664
 H238 H 0.24251 0.10492 -0.11099
 H239 H 0.27111 -0.03121 -0.13258
 H240 H 0.44802 -0.00623 -0.05680
 H241 H 0.40894 0.12555 -0.03731
 H242 H 0.34310 -0.01693 -0.10858
 H243 H 0.39991 -0.00700 -0.08566
 C244 C -0.03350 0.73433 0.59037
 C245 C 0.01107 0.79957 0.59061
 C246 C 0.01327 0.84158 0.57641
 C247 C -0.03015 0.81967 0.56236
 C248 C -0.07394 0.75517 0.56208
 C249 C -0.07541 0.71290 0.57578
 C250 C -0.03636 0.69129 0.60621
 C251 C -0.07775 0.62561 0.60702
 C252 C -0.08204 0.58792 0.62270
 C253 C -0.04529 0.61459 0.63795
 C254 C -0.00179 0.67963 0.63695
 C255 C 0.00324 0.71800 0.62119
 C256 C 0.05126 0.82265 0.60539
 C257 C 0.04689 0.78284 0.62046
 H258 H 0.08538 0.87253 0.60559
 H259 H 0.07780 0.80324 0.63181
 H260 H 0.04657 0.89158 0.57680
 H261 H -0.10780 0.73748 0.55129
 H262 H -0.11585 0.53781 0.62316
 H263 H 0.02768 0.70039 0.64856
 H264 H -0.11089 0.66396 0.57497
 H265 H -0.10782 0.60240 0.59584
 C266 C 0.26857 0.28920 0.25085
 C267 C 0.24541 0.22457 0.25126
 C268 C 0.21547 0.19115 0.23597
 C269 C 0.20783 0.22069 0.22000
 C270 C 0.22986 0.28449 0.21962
 C271 C 0.26004 0.31849 0.23482
 C272 C 0.30058 0.32301 0.26759
 C273 C 0.32642 0.38755 0.26869
 C274 C 0.35498 0.41629 0.28479
 C275 C 0.35821 0.38135 0.30015
 C276 C 0.33366 0.31751 0.29903
 C277 C 0.30505 0.28826 0.28303
 C278 C 0.25190 0.19327 0.26694
 C279 C 0.28095 0.22439 0.28250
 H280 H 0.23404 0.14377 0.26722
 H281 H 0.28457 0.19796 0.29432
 H282 H 0.19722 0.14148 0.23659
 H283 H 0.22455 0.30833 0.20744
 H284 H 0.37357 0.46566 0.28535
 H285 H 0.33721 0.29045 0.31070
 H286 H 0.27630 0.36746 0.23375
 H287 H 0.32485 0.41651 0.25734
 C288 C 0.77665 -0.02731 -0.08054
 C289 C 0.84297 0.00366 -0.08021
 C290 C 0.87643 -0.00499 -0.09378
 C291 C 0.84566 -0.04342 -0.10830
 C292 C 0.77978 -0.07226 -0.10893
 C293 C 0.74577 -0.06481 -0.09521
 C294 C 0.74273 -0.01819 -0.06528
 C295 C 0.67643 -0.04969 -0.06347
 C296 C 0.64747 -0.04065 -0.04860
 C297 C 0.68387 0.00019 -0.03524
 C298 C 0.74982 0.03276 -0.03724
 C299 C 0.77924 0.02318 -0.05182
 C300 C 0.87608 0.04391 -0.06646
 C301 C 0.84496 0.05399 -0.05269
 H302 H 0.92700 0.06817 -0.06633
 H303 H 0.87280 0.08560 -0.04236
 H304 H 0.92735 0.02115 -0.09337
 H305 H 0.75351 -0.10293 -0.11959
 H306 H 0.59647 -0.06680 -0.04733
 H307 H 0.77861 0.06551 -0.02726
 H308 H 0.69538 -0.08882 -0.09634
 H309 H 0.64617 -0.08231 -0.07318
 C310 C 0.29098 0.01867 0.07287
 C311 C 0.27566 0.06448 0.07302
 C312 C 0.24201 0.06523 0.08828
 C313 C 0.22316 0.02112 0.10368
 C314 C 0.23781 -0.02466 0.10352
 C315 C 0.27139 -0.02591 0.08834
 C316 C 0.32733 0.01994 0.05621
 C317 C 0.34544 -0.02312 0.05458
 C318 C 0.37950 -0.01954 0.03876
 C319 C 0.39627 0.02693 0.02417
 C320 C 0.37846 0.06993 0.02569
 C321 C 0.34433 0.06681 0.04147
 C322 C 0.29385 0.10942 0.05794
 C323 C 0.32747 0.11058 0.04252
 H324 H 0.28200 0.14441 0.05807
 H325 H 0.34051 0.14641 0.03122
 H326 H 0.22968 0.09994 0.08804
 H327 H 0.22396 -0.05911 0.11526
 H328 H 0.39211 -0.05370 0.03785
 H329 H 0.39206 0.10667 0.01464
 H330 H 0.28159 -0.06197 0.08903
 H331 H 0.33378 -0.05989 0.06531
 C332 C 0.70494 0.77600 0.41613
 C333 C 0.74132 0.84215 0.41407
 C334 C 0.77131 0.87638 0.42937
 C335 C 0.76746 0.84597 0.44703
 C336 C 0.72812 0.77974 0.44888
 C337 C 0.69757 0.74566 0.43384
 C338 C 0.67722 0.74115 0.39924
 C339 C 0.64240 0.67527 0.39979
 C340 C 0.62057 0.64507 0.38356
 C341 C 0.63245 0.67944 0.36631
 C342 C 0.66583 0.74510 0.36565
 C343 C 0.68845 0.77606 0.38192
 C344 C 0.74927 0.87393 0.39660
 C345 C 0.72334 0.84164 0.38089
 H346 H 0.77686 0.92470 0.39496
 H347 H 0.73173 0.86849 0.36767
 H348 H 0.80158 0.92671 0.42676
 H349 H 0.71842 0.75294 0.46213
 H350 H 0.59578 0.59445 0.38447
 H351 H 0.67470 0.77217 0.35244
 H352 H 0.66863 0.69539 0.43646
 H353 H 0.63248 0.64602 0.41250
 C354 C -0.02025 0.20568 0.74569
 C355 C -0.06003 0.13950 0.74799
 C356 C -0.04825 0.10540 0.76157
 C357 C 0.00255 0.13590 0.77316
 C358 C 0.04095 0.20150 0.77131
 C359 C 0.02994 0.23610 0.75771
 C360 C -0.03336 0.24000 0.73047
 C361 C 0.00465 0.30555 0.72639
 C362 C -0.00856 0.33480 0.71163
 C363 C -0.06004 0.29956 0.70061
 C364 C -0.09885 0.23453 0.70484
 C365 C -0.08567 0.20461 0.71945
 C366 C -0.11128 0.10749 0.73670
 C367 C -0.12404 0.13937 0.72281
 H368 H -0.14193 0.05686 0.73857
 H369 H -0.16412 0.11236 0.71438
 H370 H -0.07906 0.05472 0.76322
 H371 H 0.08031 0.22600 0.78017
 H372 H 0.02259 0.38498 0.70856
 H373 H -0.13938 0.20691 0.69662
 H374 H 0.06132 0.28640 0.75678
 H375 H 0.04533 0.33492 0.73421
 C376 C 0.79506 0.04592 0.08017
 C377 C 0.80785 -0.00146 0.08382
 C378 C 0.84948 0.00438 0.09751
 C379 C 0.87928 0.05689 0.10776
 C380 C 0.86454 0.10244 0.10491
 C381 C 0.82297 0.09722 0.09121
 C382 C 0.75438 0.04010 0.06425
 C383 C 0.74127 0.08601 0.05860
 C384 C 0.70762 0.08060 0.04266
 C385 C 0.68631 0.02938 0.03206
 C386 C 0.69621 -0.01799 0.03813
 C387 C 0.73035 -0.01283 0.05391
 C388 C 0.78052 -0.05368 0.07348
 C389 C 0.74242 -0.05936 0.05888
 H390 H 0.78985 -0.09019 0.07646
 H391 H 0.72351 -0.10005 0.05103
 H392 H 0.85997 -0.03153 0.09996
 H393 H 0.88689 0.14312 0.11282
 H394 H 0.70042 0.11772 0.03819
 H395 H 0.67886 -0.05825 0.03015
 H396 H 0.81429 0.13426 0.08925
 H397 H 0.75805 0.12714 0.06597
 C398 C 0.23885 0.25398 0.41850
 C399 C 0.17949 0.24649 0.42118
 C400 C 0.13975 0.20911 0.43655
 C401 C 0.15699 0.17701 0.44914
 C402 C 0.21501 0.18306 0.44632
 C403 C 0.25581 0.22147 0.43126
 C404 C 0.27977 0.29445 0.40181
 C405 C 0.34134 0.30845 0.39835
 C406 C 0.37640 0.34450 0.38218
 C407 C 0.35059 0.36670 0.36909
 C408 C 0.29037 0.35475 0.37264
 C409 C 0.25525 0.31969 0.38893
 C410 C 0.15921 0.27488 0.40827
 C411 C 0.19586 0.30990 0.39234
 H412 H 0.11363 0.26884 0.41030
 H413 H 0.17748 0.32983 0.38257
 H414 H 0.09419 0.20330 0.43844
 H415 H 0.22891 0.15827 0.45585
 H416 H 0.42312 0.35375 0.37965
 H417 H 0.27091 0.37296 0.36264
 H418 H 0.29977 0.22426 0.42969
 H419 H 0.36311 0.29195 0.40791
 C420 C -0.07315 0.66332 0.75653
 C421 C -0.10594 0.69412 0.75670
 C422 C -0.09867 0.73085 0.77124
 C423 C -0.05744 0.73921 0.78540
 C424 C -0.02642 0.70728 0.78551
 C425 C -0.03442 0.66944 0.77137
 C426 C -0.07818 0.62877 0.73999
 C427 C -0.04694 0.59714 0.73833
 C428 C -0.04842 0.57069 0.72193
 C429 C -0.08106 0.57498 0.70682
 C430 C -0.11512 0.60335 0.70868
 C431 C -0.11394 0.63015 0.72508
 C432 C -0.14334 0.69066 0.74194
 C433 C -0.14691 0.65973 0.72641
 H434 H -0.16869 0.71395 0.74211
 H435 H -0.17494 0.66008 0.71510
 H436 H -0.12209 0.75614 0.77092
 H437 H 0.00533 0.71280 0.79639
 H438 H -0.02188 0.54890 0.72081
 H439 H -0.14151 0.60571 0.69717
 H440 H -0.00828 0.64716 0.77203
 H441 H -0.02002 0.59341 0.74934
   
