data_POSCAR
  _audit_creation_date              2014-09-24
  _audit_creation_method            'ToBaCCo'
  _symmetry_space_group_name_H-M    'P1'
  _symmetry_Int_Tables_number       1
  _symmetry_cell_setting            triclinic
  loop_
  _symmetry_equiv_pos_as_xyz
 x,y,z
_cell_length_a 39.2082
_cell_length_b 39.1938
_cell_length_c 14.8679
_cell_angle_alpha 90.050000
_cell_angle_beta 89.965800
_cell_angle_gamma 119.914200
loop_
  _atom_site_label
  _atom_site_type_symbol
  _atom_site_fract_x
  _atom_site_fract_y
  _atom_site_fract_z
C1 C 0.15349 0.45309 0.47497
 C2 C 0.17441 0.46463 0.39347
 C3 C 0.21565 0.48852 0.39659
 C4 C 0.23564 0.50285 0.47960
 C5 C 0.21264 0.49567 0.55798
 C6 C 0.17169 0.47045 0.55688
 C7 C 0.27997 0.52469 0.48610
 C8 C 0.29868 0.52658 0.56886
 C9 C 0.33977 0.54563 0.57617
 C10 C 0.36284 0.56146 0.49912
 C11 C 0.34510 0.55671 0.41462
 C12 C 0.30409 0.54053 0.40935
 H13 H 0.12187 0.43402 0.47342
 H14 H 0.23154 0.49479 0.33395
 H15 H 0.22643 0.51001 0.62041
 H16 H 0.28172 0.51189 0.62804
 H17 H 0.39433 0.57320 0.50375
 H18 H 0.29150 0.53895 0.34395
 C19 C 0.54809 -0.30063 0.47921
 C20 C 0.53655 -0.29154 0.39759
 C21 C 0.51320 -0.27355 0.40020
 C22 C 0.49925 -0.26715 0.48312
 C23 C 0.50583 -0.28336 0.56174
 C24 C 0.53032 -0.30002 0.56061
 C25 C 0.47827 -0.24372 0.48886
 C26 C 0.47635 -0.22664 0.57134
 C27 C 0.45814 -0.20367 0.57753
 C28 C 0.44331 -0.19574 0.49948
 C29 C 0.44783 -0.20941 0.41549
 C30 C 0.46319 -0.23497 0.41145
 H31 H 0.56707 -0.31333 0.47793
 H32 H 0.50709 -0.26409 0.33720
 H33 H 0.49154 -0.28361 0.62407
 H34 H 0.49019 -0.22966 0.63125
 H35 H 0.43218 -0.17542 0.50305
 H36 H 0.46451 -0.24640 0.34635
 C37 C 1.29938 0.84996 0.48022
 C38 C 1.28964 0.82942 0.39816
 C39 C 1.27034 0.78803 0.40013
 C40 C 1.26295 0.76725 0.48256
 C41 C 1.27792 0.78948 0.56228
 C42 C 1.29558 0.83060 0.56183
 C43 C 1.24031 0.72287 0.48636
 C44 C 1.22209 0.70299 0.56715
 C45 C 1.20137 0.66156 0.57253
 C46 C 1.19695 0.63977 0.49377
 C47 C 1.21071 0.65880 0.41082
 C48 C 1.23431 0.69988 0.40865
 H49 H 1.31418 0.88181 0.48007
 H50 H 1.26069 0.77268 0.33685
 H51 H 1.27671 0.77519 0.62523
 H52 H 1.22328 0.71954 0.62631
 H53 H 1.17870 0.60799 0.49480
 H54 H 1.24644 0.71332 0.34453
 C55 C 0.85422 0.53376 0.52758
 C56 C 0.83544 0.51995 0.44486
 C57 C 0.79428 0.50181 0.44086
 C58 C 0.77181 0.49914 0.51811
 C59 C 0.79183 0.51213 0.60145
 C60 C 0.83275 0.52855 0.60632
 C61 C 0.72801 0.48289 0.51085
 C62 C 0.70318 0.46992 0.58739
 C63 C 0.66261 0.45686 0.58044
 C64 C 0.64612 0.45232 0.49409
 C65 C 0.67016 0.46628 0.41796
 C66 C 0.71084 0.48244 0.42701
 H67 H 0.88577 0.54594 0.53207
 H68 H 0.78019 0.48959 0.37722
 H69 H 0.77644 0.51012 0.66314
 H70 H 0.71503 0.47052 0.65319
 H71 H 0.61500 0.44206 0.48626
 H72 H 0.72879 0.49549 0.36801
 C73 C 0.45913 0.31438 0.52519
 C74 C 0.47473 0.31047 0.44377
 C75 C 0.49624 0.29075 0.44306
 C76 C 0.50084 0.27315 0.52185
 C77 C 0.48833 0.28131 0.60459
 C78 C 0.46822 0.30271 0.60693
 C79 C 0.51803 0.24628 0.51565
 C80 C 0.53115 0.23454 0.59229
 C81 C 0.54470 0.20731 0.58482
 C82 C 0.54968 0.19581 0.49833
 C83 C 0.53480 0.20505 0.42286
 C84 C 0.51818 0.22912 0.43210
 H85 H 0.44355 0.33071 0.52566
 H86 H 0.50945 0.28951 0.38031
 H87 H 0.49294 0.27049 0.66743
 H88 H 0.52982 0.24520 0.65834
 H89 H 0.56040 0.17529 0.48998
 H90 H 0.50420 0.23295 0.37345
 C91 C 0.67986 0.14875 0.53131
 C92 C 0.68469 0.16739 0.44849
 C93 C 0.70767 0.20851 0.44412
 C94 C 0.72767 0.23109 0.52099
 C95 C 0.72073 0.21131 0.60459
 C96 C 0.69626 0.17036 0.60983
 C97 C 0.75550 0.27472 0.51260
 C98 C 0.76755 0.30015 0.58822
 C99 C 0.79544 0.34055 0.57960
 C100 C 0.80723 0.35626 0.49267
 C101 C 0.79725 0.33158 0.41793
 C102 C 0.77254 0.29106 0.42842
 H103 H 0.66055 0.11720 0.53604
 H104 H 0.70949 0.22254 0.38040
 H105 H 0.73422 0.22692 0.66600
 H106 H 0.75643 0.28879 0.65444
 H107 H 0.82822 0.38726 0.48340
 H108 H 0.76784 0.27257 0.37045
 O109 O 0.96620 0.55011 -0.14405
 O110 O 0.91577 0.50111 -0.06283
 C111 C 0.92935 0.52903 -0.12224
 O112 O 1.03813 0.44753 -0.18372
 O113 O 1.09080 0.49120 -0.09848
 C114 C 1.07538 0.46652 -0.16455
 O115 O 0.93371 0.42486 -0.18172
 O116 O 0.89954 0.43949 -0.07779
 C117 C 0.90187 0.42327 -0.15185
 O118 O 1.07305 0.58281 -0.15071
 O119 O 1.10676 0.55474 -0.08786
 C120 C 1.10435 0.57991 -0.14046
 Zr121 Zr 1.01550 0.54610 -0.10118
 O122 O 1.01750 0.55577 -0.24159
 O123 O 1.02972 0.60453 -0.07246
 Zr124 Zr 0.99040 0.45009 -0.12439
 O125 O 0.98969 0.44826 -0.26643
 O126 O 0.97001 0.38883 -0.12439
 O127 O 0.96937 0.48954 -0.12659
 O128 O 1.03534 0.50774 -0.13421
 O129 O 1.07718 0.57164 0.16402
 O130 O 1.10956 0.55062 0.06997
 C131 C 1.10851 0.57154 0.13644
 O132 O 0.93642 0.40814 0.15433
 O133 O 0.90197 0.43402 0.08538
 C134 C 0.90482 0.41027 0.14154
 O135 O 1.04175 0.43590 0.13559
 O136 O 1.09267 0.48611 0.05808
 C137 C 1.07875 0.45728 0.11535
 O138 O 0.97013 0.53755 0.18654
 O139 O 0.91774 0.49534 0.09877
 C140 C 0.93287 0.51850 0.16746
 Zr141 Zr 1.01814 0.53799 0.12090
 O142 O 1.02476 0.53768 0.26206
 O143 O 1.02944 0.59673 0.12738
 Zr144 Zr 0.99305 0.44189 0.09767
 O145 O 0.99661 0.43321 0.23696
 O146 O 0.97384 0.38176 0.07267
 Zr147 Zr 0.94694 0.47805 0.00575
 Zr148 Zr 1.06163 0.50990 -0.00915
 O149 O 1.03843 0.49851 0.12237
 O150 O 0.97232 0.47995 0.13202
 O151 O 1.05349 0.55887 0.00694
 O152 O 0.95586 0.42976 -0.01083
 O153 O 0.98455 0.53929 0.01582
 O154 O 1.02465 0.44832 -0.01961
 H155 H 1.05063 0.51412 -0.19082
 H156 H 0.93214 0.40326 -0.01436
 H157 H 1.05531 0.50150 0.17473
 H158 H 0.97250 0.55613 0.02343
 H159 H 0.99304 0.38531 -0.11492
 H160 H 0.99612 0.38015 0.04594
 H161 H 0.98688 0.44882 0.26885
 H162 H 1.00353 0.51206 0.28427
 H163 H 1.05425 0.61349 0.09446
 H164 H 1.03105 0.61694 -0.13136
 H165 H 0.99548 0.53185 -0.26862
 H166 H 0.99486 0.47438 -0.28702
 O167 O 0.43235 0.50550 0.17441
 O168 O 0.45140 0.55723 0.07658
 C169 C 0.43251 0.53691 0.14661
 O170 O 0.59364 0.52456 0.14711
 O171 O 0.56562 0.46330 0.08200
 C172 C 0.59098 0.49057 0.13472
 O173 O 0.56036 0.59854 0.14700
 O174 O 0.51295 0.60210 0.06374
 C175 C 0.54005 0.61522 0.12518
 O176 O 0.45727 0.42528 0.17993
 O177 O 0.50175 0.41667 0.09635
 C178 C 0.47652 0.40713 0.16149
 Zr179 Zr 0.46154 0.47661 0.12280
 O180 O 0.46407 0.47826 0.26507
 O181 O 0.40111 0.43381 0.12379
 Zr182 Zr 0.55773 0.54663 0.09848
 O183 O 0.57036 0.55561 0.23743
 O184 O 0.61553 0.59280 0.07076
 O185 O 0.50130 0.53686 0.12518
 O186 O 0.51903 0.48858 0.13153
 O187 O 0.44519 0.41062 -0.13545
 O188 O 0.49575 0.40929 -0.06066
 C189 C 0.46628 0.39453 -0.11631
 O190 O 0.54797 0.58318 -0.18920
 O191 O 0.50768 0.59510 -0.09832
 C192 C 0.53012 0.60244 -0.16805
 O193 O 0.57965 0.50825 -0.17236
 O194 O 0.55983 0.45579 -0.07629
 C195 C 0.57938 0.47668 -0.14531
 O196 O 0.41894 0.48909 -0.15442
 O197 O 0.44613 0.54991 -0.08743
 C198 C 0.42183 0.52319 -0.14284
 Zr199 Zr 0.45275 0.46603 -0.09926
 O200 O 0.44519 0.45489 -0.23926
 O201 O 0.39243 0.42545 -0.07626
 Zr202 Zr 0.54903 0.53609 -0.12319
 O203 O 0.55118 0.53343 -0.26486
 O204 O 0.60815 0.58274 -0.12403
 Zr205 Zr 0.48981 0.54821 -0.00683
 Zr206 Zr 0.52057 0.46434 0.00603
 O207 O 0.50888 0.47643 -0.12493
 O208 O 0.49118 0.52460 -0.13345
 O209 O 0.45923 0.44063 0.01746
 O210 O 0.55095 0.57119 -0.01771
 O211 O 0.44131 0.49129 0.00964
 O212 O 0.57002 0.52111 -0.01036
 H213 H 0.52531 0.47931 0.18773
 H214 H 0.56768 0.60009 -0.02458
 H215 H 0.51077 0.46200 -0.17766
 H216 H 0.41468 0.48826 0.01281
 H217 H 0.63128 0.58073 0.05132
 H218 H 0.62519 0.57153 -0.10948
 H219 H 0.52437 0.51393 -0.28475
 H220 H 0.45844 0.48068 -0.27012
 H221 H 0.39082 0.40365 -0.03949
 H222 H 0.39317 0.42947 0.18790
 H223 H 0.47938 0.50624 0.28307
 H224 H 0.54475 0.54318 0.26880
 O225 O 0.47282 0.06623 0.15796
 O226 O 0.53311 0.10058 0.08916
 C227 C 0.50654 0.09776 0.14541
 O228 O 0.49554 -0.07441 0.16920
 O229 O 0.44275 -0.10714 0.07409
 C230 C 0.46440 -0.10586 0.14140
 O231 O 0.56818 0.03262 0.19050
 O232 O 0.57856 0.08488 0.10190
 C233 C 0.58645 0.06983 0.17096
 O234 O 0.39543 -0.03887 0.13906
 O235 O 0.39504 -0.09022 0.06352
 C236 C 0.38002 -0.07598 0.12001
 Zr237 Zr 0.45017 0.00944 0.10187
 O238 O 0.43823 0.00631 0.24137
 O239 O 0.40774 0.02610 0.07298
 Zr240 Zr 0.52125 -0.01555 0.12425
 O241 O 0.51582 -0.02205 0.26555
 O242 O 0.56908 -0.02634 0.12768
 O243 O 0.50887 0.03023 0.13559
 O244 O 0.46153 -0.03589 0.12638
 O245 O 0.40981 -0.03573 -0.17791
 O246 O 0.40138 -0.08833 -0.09303
 C247 C 0.39167 -0.07297 -0.15840
 O248 O 0.58476 0.03647 -0.14138
 O249 O 0.58610 0.08684 -0.05969
 C250 C 0.60044 0.07332 -0.11935
 O251 O 0.51088 -0.07055 -0.14757
 O252 O 0.44939 -0.10454 -0.08389
 C253 C 0.47702 -0.10208 -0.13658
 O254 O 0.49118 0.06886 -0.17671
 O255 O 0.54048 0.10293 -0.07403
 C256 C 0.52152 0.10069 -0.14725
 Zr257 Zr 0.46056 0.01191 -0.12020
 O258 O 0.45969 0.01204 -0.26227
 O259 O 0.41939 0.03196 -0.12103
 Zr260 Zr 0.53169 -0.01295 -0.09819
 O261 O 0.53799 -0.01550 -0.23904
 O262 O 0.57843 -0.02434 -0.07557
 Zr263 Zr 0.53208 0.05558 0.00917
 Zr264 Zr 0.44965 -0.05926 -0.00496
 O265 O 0.47338 -0.03303 -0.13036
 O266 O 0.52103 0.03314 -0.12326
 O267 O 0.42498 -0.02229 -0.01493
 O268 O 0.55582 0.01799 0.01888
 O269 O 0.47486 0.04659 -0.00665
 O270 O 0.50685 -0.05097 0.01038
 H271 H 0.44769 -0.05259 0.17899
 H272 H 0.58470 0.03022 0.02630
 H273 H 0.46415 -0.04853 -0.18667
 H274 H 0.47182 0.07020 -0.00996
 H275 H 0.55944 -0.05355 0.10628
 H276 H 0.56702 -0.05128 -0.05084
 H277 H 0.53838 0.00784 -0.26546
 H278 H 0.48199 0.00890 -0.28227
 H279 H 0.39372 0.00981 -0.10144
 H280 H 0.39729 0.02848 0.13190
 H281 H 0.46369 0.01682 0.27299
 H282 H 0.50740 -0.00360 0.28746
 N283 N 1.16877 0.47934 0.23819
 C284 C 1.15316 0.45607 0.31205
 N285 N 1.11424 0.42876 0.31090
 N286 N 1.09141 0.42654 0.24259
 C287 C 1.10631 0.45165 0.17214
 N288 N 1.14569 0.47749 0.17000
 N289 N 0.57064 0.68162 0.31707
 C290 C 0.54413 0.69434 0.31707
 N291 N 0.52029 0.68596 0.24401
 N292 N 0.52092 0.66317 0.17782
 C293 C 0.54592 0.64856 0.18153
 N294 N 0.57157 0.65934 0.25092
 N295 N 0.31648 -0.10995 0.31658
 C296 C 0.30357 -0.14917 0.31731
 N297 N 0.31058 -0.16532 0.24334
 N298 N 0.33228 -0.14260 0.17520
 C299 C 0.34688 -0.10301 0.17748
 N300 N 0.33747 -0.08747 0.24825
 N301 N 0.84372 0.49820 0.29354
 C302 C 0.85953 0.52256 0.36552
 N303 N 0.89902 0.54739 0.36747
 N304 N 0.92199 0.54719 0.30202
 C305 C 0.90644 0.52223 0.23145
 N306 N 0.86679 0.49799 0.22771
 N307 N 0.44545 0.34382 0.36051
 C308 C 0.47136 0.33040 0.36214
 N309 N 0.49663 0.33932 0.29181
 N310 N 0.49684 0.36189 0.22442
 C311 C 0.47161 0.37620 0.22462
 N312 N 0.44562 0.36630 0.29337
 N313 N 0.65496 0.15904 0.29698
 C314 C 0.66327 0.14323 0.36931
 N315 N 0.64857 0.10371 0.37154
 N316 N 0.62559 0.08073 0.30598
 C317 C 0.61642 0.09629 0.23503
 N318 N 0.63186 0.13595 0.23104
 N319 N 0.53245 0.18913 -0.25813
 C320 C 0.54721 0.18689 -0.33956
 N321 N 0.55820 0.15928 -0.35047
 N322 N 0.55274 0.13376 -0.28557
 C323 C 0.53644 0.13494 -0.20625
 N324 N 0.52692 0.16346 -0.19287
 N325 N 0.60104 0.44159 -0.35150
 C326 C 0.63995 0.45371 -0.34280
 N327 N 0.65735 0.46847 -0.26173
 N328 N 0.63729 0.47296 -0.19454
 C329 C 0.59880 0.46205 -0.20525
 N330 N 0.58101 0.44581 -0.28443
 N331 N 0.81265 0.34721 -0.26264
 C332 C 0.81601 0.36370 -0.34519
 N333 N 0.84469 0.40175 -0.35718
 N334 N 0.87015 0.42163 -0.29208
 C335 C 0.86782 0.40458 -0.21151
 N336 N 0.83823 0.36720 -0.19713
 N337 N 0.49416 -0.16525 -0.28960
 C338 C 0.46026 -0.18273 -0.33791
 N339 N 0.43031 -0.17678 -0.31255
 N340 N 0.43446 -0.15358 -0.24275
 C341 C 0.46881 -0.13523 -0.19612
 N342 N 0.49851 -0.14160 -0.22083
 N343 N 0.39430 0.57224 -0.31398
 C344 C 0.35836 0.54270 -0.33999
 N345 N 0.34197 0.50819 -0.29409
 N346 N 0.36129 0.50290 -0.22693
 C347 C 0.39739 0.53218 -0.20170
 N348 N 0.41339 0.56714 -0.24575
 N349 N 1.17465 0.66168 -0.28117
 C350 C 1.18188 0.64215 -0.34755
 N351 N 1.16701 0.60272 -0.33804
 N352 N 1.14505 0.58357 -0.26708
 C353 C 1.13675 0.60291 -0.20277
 N354 N 1.15190 0.64235 -0.21113
 N355 N 0.83919 0.50736 -0.24240
 C356 C 0.85371 0.53548 -0.30733
 N357 N 0.89187 0.56455 -0.30186
 N358 N 0.91517 0.56439 -0.23716
 C359 C 0.90130 0.53513 -0.17525
 N360 N 0.86258 0.50719 -0.17746
 N361 N 0.43516 0.33024 -0.31127
 C362 C 0.46088 0.31657 -0.31203
 N363 N 0.48390 0.32312 -0.23815
 N364 N 0.48346 0.34528 -0.17024
 C365 C 0.45919 0.36076 -0.17269
 N366 N 0.43421 0.35164 -0.24314
 N367 N 0.66861 0.16376 -0.23885
 C368 C 0.68248 0.14942 -0.30375
 N369 N 0.67367 0.11130 -0.29845
 N370 N 0.65020 0.08783 -0.23402
 C371 C 0.63453 0.10151 -0.17219
 N372 N 0.64506 0.14021 -0.17415
 N373 N 1.16428 0.48709 -0.29052
 C374 C 1.14850 0.46526 -0.36626
 N375 N 1.10892 0.44077 -0.36925
 N376 N 1.08599 0.43940 -0.30190
 C377 C 1.10161 0.46235 -0.22820
 N378 N 1.14127 0.48586 -0.22301
 N379 N 0.55773 0.66418 -0.36862
 C380 C 0.53420 0.68042 -0.36397
 N381 N 0.51177 0.67361 -0.28897
 N382 N 0.51172 0.65022 -0.22373
 C383 C 0.53429 0.63300 -0.23088
 N384 N 0.55775 0.64096 -0.30373
 N385 N 0.32740 -0.10662 -0.35552
 C386 C 0.31458 -0.14583 -0.35637
 N387 N 0.32404 -0.16159 -0.28581
 N388 N 0.34664 -0.13877 -0.21907
 C389 C 0.36050 -0.09935 -0.22029
 N390 N 0.34995 -0.08385 -0.28905
 N391 N 0.42175 -0.17347 0.32961
 C392 C 0.44459 -0.19051 0.33221
 N393 N 0.47033 -0.18322 0.26373
 N394 N 0.47430 -0.15865 0.19746
 C395 C 0.45206 -0.14104 0.19602
 N396 N 0.42542 -0.14924 0.26274
 N397 N 0.40795 0.58061 0.33402
 C398 C 0.36797 0.55993 0.33262
 N399 N 0.34976 0.53533 0.26221
 N400 N 0.37057 0.53033 0.19801
 C401 C 0.41042 0.55020 0.20104
 N402 N 0.42877 0.57583 0.26945
 N403 N 1.18466 0.65520 0.25924
 C404 C 1.19305 0.63703 0.32639
 N405 N 1.17741 0.59736 0.32212
 N406 N 1.15334 0.57668 0.25511
 C407 C 1.14388 0.59481 0.19003
 N408 N 1.16024 0.63448 0.19291
 N409 N 0.49338 0.16246 0.30161
 C410 C 0.52970 0.18310 0.33896
 N411 N 0.55920 0.17801 0.30621
 N412 N 0.55244 0.15276 0.23931
 C413 C 0.51581 0.13129 0.20386
 N414 N 0.48648 0.13676 0.23582
 N415 N 0.66964 0.50509 0.28940
 C416 C 0.65319 0.46989 0.33244
 N417 N 0.61807 0.44024 0.30274
 N418 N 0.59973 0.44587 0.23376
 C419 C 0.61562 0.48149 0.19266
 N420 N 0.65101 0.51090 0.22145
 N421 N 0.84037 0.33259 0.29804
 C422 C 0.81890 0.34779 0.33353
 N423 N 0.82340 0.38193 0.29941
 N424 N 0.84886 0.40045 0.23300
 C425 C 0.87118 0.38583 0.19948
 N426 N 0.86626 0.35143 0.23270
   
