data_POSCAR
  _audit_creation_date              2014-09-24
  _audit_creation_method            'ToBaCCo'
  _symmetry_space_group_name_H-M    'P1'
  _symmetry_Int_Tables_number       1
  _symmetry_cell_setting            triclinic
  loop_
  _symmetry_equiv_pos_as_xyz
 x,y,z
_cell_length_a 47.5803
_cell_length_b 47.6092
_cell_length_c 47.7614
_cell_angle_alpha 91.805000
_cell_angle_beta 91.848500
_cell_angle_gamma 91.845600
loop_
  _atom_site_label
  _atom_site_type_symbol
  _atom_site_fract_x
  _atom_site_fract_y
  _atom_site_fract_z
N1 N 0.16446 0.22898 0.23737
 N2 N 0.17228 0.20664 0.25073
 C3 C 0.15504 0.20238 0.27212
 C4 C 0.13557 0.22314 0.27191
 C5 C 0.14197 0.23969 0.24973
 H6 H 0.15640 0.18548 0.28666
 H7 H 0.13104 0.25801 0.24304
 Cu8 Cu 0.20400 0.18517 0.23876
 Cu9 Cu 0.18380 0.24246 0.20494
 Cu10 Cu 0.24141 0.20546 0.18391
 N11 N 0.23679 0.16519 0.22710
 N12 N 0.25128 0.17322 0.20559
 C13 C 0.27267 0.15582 0.20192
 C14 C 0.27137 0.13601 0.22222
 C15 C 0.24851 0.14238 0.23790
 H16 H 0.28794 0.15738 0.18570
 H17 H 0.24104 0.13120 0.25571
 N18 N 0.22811 0.23864 0.16469
 N19 N 0.20614 0.25276 0.17267
 C20 C 0.20226 0.27412 0.15528
 C21 C 0.22275 0.27319 0.13563
 C22 C 0.23880 0.25062 0.14203
 H23 H 0.18577 0.28916 0.15667
 H24 H 0.25681 0.24346 0.13090
 H25 H 0.19901 0.20413 0.19210
 H26 H 0.22243 0.22676 0.21624
 N27 N 0.66449 0.72925 0.73766
 N28 N 0.67272 0.70732 0.75146
 C29 C 0.65541 0.70303 0.77278
 C30 C 0.63550 0.72336 0.77209
 C31 C 0.64170 0.73967 0.74969
 H32 H 0.65705 0.68643 0.78763
 H33 H 0.63045 0.75768 0.74266
 Cu34 Cu 0.70507 0.68651 0.74007
 Cu35 Cu 0.68375 0.74265 0.70514
 Cu36 Cu 0.74165 0.70589 0.68443
 N37 N 0.73751 0.66614 0.72817
 N38 N 0.75172 0.67386 0.70636
 C39 C 0.77293 0.65628 0.70253
 C40 C 0.77180 0.63667 0.72303
 C41 C 0.74922 0.64332 0.73898
 H42 H 0.78794 0.65757 0.68606
 H43 H 0.74190 0.63229 0.75695
 N44 N 0.72814 0.73885 0.66496
 N45 N 0.70605 0.75287 0.67282
 C46 C 0.70206 0.77411 0.65530
 C47 C 0.72261 0.77322 0.63571
 C48 C 0.73880 0.75079 0.64226
 H49 H 0.68547 0.78905 0.65658
 H50 H 0.75689 0.74371 0.63122
 H51 H 0.69931 0.70428 0.69303
 H52 H 0.72267 0.72776 0.71638
 N53 N 0.33042 0.76305 0.74507
 N54 N 0.32272 0.78575 0.75884
 C55 C 0.34010 0.79042 0.78151
 C56 C 0.35939 0.76941 0.78180
 C57 C 0.35281 0.75246 0.75847
 H58 H 0.33910 0.80788 0.79644
 H59 H 0.36377 0.73407 0.75156
 Cu60 Cu 0.29108 0.80704 0.74523
 Cu61 Cu 0.31135 0.74906 0.71048
 Cu62 Cu 0.25494 0.78666 0.68599
 N63 N 0.25940 0.82803 0.73128
 N64 N 0.24533 0.81992 0.70809
 C65 C 0.22432 0.83767 0.70338
 C66 C 0.22546 0.85784 0.72474
 C67 C 0.24785 0.85130 0.74211
 H68 H 0.20925 0.83589 0.68591
 H69 H 0.25494 0.86248 0.76123
 N70 N 0.26790 0.75245 0.66659
 N71 N 0.28944 0.73815 0.67590
 C72 C 0.29342 0.71634 0.65792
 C73 C 0.27340 0.71704 0.63650
 C74 C 0.25760 0.74008 0.64247
 H75 H 0.30985 0.70130 0.65997
 H76 H 0.24020 0.74746 0.62991
 H77 H 0.29699 0.78746 0.69810
 H78 H 0.27265 0.76544 0.71883
 N79 N 0.83163 0.26214 0.24541
 N80 N 0.82386 0.28473 0.25934
 C81 C 0.84116 0.28929 0.28209
 C82 C 0.86051 0.26833 0.28221
 C83 C 0.85406 0.25154 0.25874
 H84 H 0.84010 0.30669 0.29709
 H85 H 0.86516 0.23330 0.25164
 Cu86 Cu 0.79227 0.30615 0.24585
 Cu87 Cu 0.81269 0.24842 0.21067
 Cu88 Cu 0.75629 0.28613 0.18636
 N89 N 0.76060 0.32721 0.23192
 N90 N 0.74660 0.31922 0.20865
 C91 C 0.72563 0.33701 0.20399
 C92 C 0.72666 0.35706 0.22547
 C93 C 0.74898 0.35038 0.24285
 H94 H 0.71065 0.33540 0.18645
 H95 H 0.75600 0.36147 0.26205
 N96 N 0.76932 0.25209 0.16676
 N97 N 0.79088 0.23776 0.17596
 C98 C 0.79487 0.21605 0.15786
 C99 C 0.77483 0.21686 0.13647
 C100 C 0.75901 0.23985 0.14258
 H101 H 0.81127 0.20097 0.15984
 H102 H 0.74155 0.24724 0.13012
 H103 H 0.79835 0.28692 0.19855
 H104 H 0.77398 0.26468 0.21906
 N105 N 0.82859 0.73261 0.25997
 N106 N 0.82039 0.70893 0.24676
 C107 C 0.83775 0.70387 0.22556
 C108 C 0.85769 0.72552 0.22568
 C109 C 0.85142 0.74339 0.24767
 H110 H 0.83597 0.68598 0.21101
 H111 H 0.86248 0.76285 0.25407
 Cu112 Cu 0.78755 0.68728 0.25818
 Cu113 Cu 0.80880 0.74809 0.29164
 Cu114 Cu 0.74921 0.71103 0.31140
 N115 N 0.75350 0.66730 0.26917
 N116 N 0.73860 0.67668 0.29001
 C117 C 0.71664 0.65871 0.29355
 C118 C 0.71792 0.63710 0.27382
 C119 C 0.74146 0.64302 0.25870
 H120 H 0.70119 0.66094 0.30952
 H121 H 0.74939 0.63037 0.24168
 N122 N 0.76312 0.74620 0.33055
 N123 N 0.78589 0.76035 0.32314
 C124 C 0.79016 0.78303 0.34058
 C125 C 0.76902 0.78300 0.35962
 C126 C 0.75233 0.75947 0.35287
 H127 H 0.80755 0.79816 0.33985
 H128 H 0.73400 0.75234 0.36379
 H129 H 0.79202 0.71040 0.30452
 H130 H 0.77012 0.73034 0.27930
 N131 N 0.32935 0.23254 -0.24032
 N132 N 0.32121 0.20887 -0.25359
 C133 C 0.33865 0.20385 -0.27475
 C134 C 0.35856 0.22553 -0.27450
 C135 C 0.35222 0.24338 -0.25251
 H136 H 0.33690 0.18598 -0.28933
 H137 H 0.36325 0.26284 -0.24601
 Cu138 Cu 0.28834 0.18715 -0.24229
 Cu139 Cu 0.30945 0.24790 -0.20862
 Cu140 Cu 0.24983 0.21071 -0.18912
 N141 N 0.25431 0.16704 -0.23141
 N142 N 0.23933 0.17639 -0.21061
 C143 C 0.21739 0.15839 -0.20715
 C144 C 0.21874 0.13680 -0.22690
 C145 C 0.24233 0.14276 -0.24194
 H146 H 0.20191 0.16056 -0.19121
 H147 H 0.25034 0.13012 -0.25892
 N148 N 0.26366 0.24587 -0.16982
 N149 N 0.28644 0.26005 -0.17713
 C150 C 0.29064 0.28269 -0.15962
 C151 C 0.26944 0.28260 -0.14064
 C152 C 0.25278 0.25908 -0.14750
 H153 H 0.30802 0.29785 -0.16027
 H154 H 0.23441 0.25191 -0.13667
 H155 H 0.29262 0.21016 -0.19585
 H156 H 0.27078 0.23013 -0.22108
 N157 N 0.66552 0.26768 -0.24693
 N158 N 0.67518 0.28889 -0.26123
 C159 C 0.65711 0.29329 -0.28287
 C160 C 0.63524 0.27368 -0.28195
 C161 C 0.64104 0.25779 -0.25897
 H162 H 0.65945 0.30965 -0.29791
 H163 H 0.62829 0.24058 -0.25142
 Cu164 Cu 0.71013 0.30906 -0.24985
 Cu165 Cu 0.68518 0.25470 -0.21357
 Cu166 Cu 0.74673 0.29112 -0.19194
 N167 N 0.74433 0.32968 -0.23693
 N168 N 0.75852 0.32267 -0.21424
 C169 C 0.78082 0.34063 -0.20985
 C170 C 0.78045 0.35970 -0.23095
 C171 C 0.75709 0.35237 -0.24770
 H172 H 0.79589 0.34011 -0.19245
 H173 H 0.74977 0.36310 -0.26604
 N174 N 0.73145 0.25859 -0.17216
 N175 N 0.70800 0.24468 -0.18038
 C176 C 0.70332 0.22353 -0.16281
 C177 C 0.72483 0.22431 -0.14278
 C178 C 0.74230 0.24666 -0.14916
 H179 H 0.68569 0.20859 -0.16447
 H180 H 0.76150 0.25358 -0.13793
 H181 H 0.70431 0.29327 -0.20222
 H182 H 0.72505 0.26853 -0.22378
 N183 N 0.16676 0.76840 0.25316
 N184 N 0.17635 0.78975 0.23902
 C185 C 0.15830 0.79416 0.21737
 C186 C 0.13649 0.77447 0.21810
 C187 C 0.14235 0.75848 0.24100
 H188 H 0.16061 0.81059 0.20240
 H189 H 0.12965 0.74116 0.24840
 Cu190 Cu 0.21117 0.81002 0.25059
 Cu191 Cu 0.18641 0.75530 0.28645
 Cu192 Cu 0.24785 0.79181 0.30834
 N193 N 0.24529 0.83069 0.26364
 N194 N 0.25955 0.82356 0.28625
 C195 C 0.28181 0.84155 0.29074
 C196 C 0.28134 0.86074 0.26973
 C197 C 0.25797 0.85349 0.25297
 H198 H 0.29691 0.84095 0.30812
 H199 H 0.25059 0.86428 0.23468
 N200 N 0.23266 0.75909 0.32791
 N201 N 0.20923 0.74519 0.31959
 C202 C 0.20454 0.72395 0.33705
 C203 C 0.22602 0.72466 0.35711
 C204 C 0.24348 0.74707 0.35085
 H205 H 0.18690 0.70903 0.33533
 H206 H 0.26264 0.75398 0.36217
 H207 H 0.20542 0.79384 0.29809
 H208 H 0.22625 0.76935 0.27633
 N209 N 0.48092 0.41374 0.48616
 N210 N 0.45916 0.42107 0.50070
 C211 C 0.45589 0.40310 0.52171
 C212 C 0.47668 0.38365 0.52011
 C213 C 0.49223 0.39088 0.49741
 H214 H 0.43961 0.40393 0.53696
 H215 H 0.51029 0.38027 0.48960
 Cu216 Cu 0.43705 0.45321 0.49050
 Cu217 Cu 0.49285 0.43431 0.45366
 Cu218 Cu 0.45383 0.49163 0.43524
 N219 N 0.41518 0.48543 0.47998
 N220 N 0.42192 0.50033 0.45831
 C221 C 0.40356 0.52106 0.45539
 C222 C 0.38439 0.51899 0.47631
 C223 C 0.39222 0.49622 0.49159
 H224 H 0.40401 0.53642 0.43920
 H225 H 0.38186 0.48816 0.50964
 N226 N 0.48680 0.47958 0.41446
 N227 N 0.50162 0.45772 0.42148
 C228 C 0.52251 0.45473 0.40334
 C229 C 0.52067 0.47564 0.38415
 C230 C 0.49791 0.49104 0.39165
 H231 H 0.53789 0.43849 0.40390
 H232 H 0.49002 0.50913 0.38116
 H233 H 0.47720 0.47256 0.46618
 H234 H 0.45379 0.44915 0.44293
 N235 N -0.01892 -0.08592 0.98536
 N236 N -0.04085 -0.07879 0.99977
 C237 C -0.04414 -0.09685 1.02069
 C238 C -0.02318 -0.11614 1.01918
 C239 C -0.00753 -0.10873 0.99661
 H240 H -0.06056 -0.09619 1.03580
 H241 H 0.01064 -0.11922 0.98888
 Cu242 Cu -0.06313 -0.04681 0.98946
 Cu243 Cu -0.00696 -0.06521 0.95296
 Cu244 Cu -0.04596 -0.00783 0.93470
 N245 N -0.08478 -0.01436 0.97926
 N246 N -0.07789 0.00077 0.95778
 C247 C -0.09617 0.02160 0.95502
 C248 C -0.11545 0.01934 0.97584
 C249 C -0.10775 -0.00361 0.99089
 H250 H -0.09563 0.03711 0.93897
 H251 H -0.11822 -0.01188 1.00879
 N252 N -0.01295 -0.01981 0.91389
 N253 N 0.00187 -0.04168 0.92088
 C254 C 0.02275 -0.04465 0.90270
 C255 C 0.02091 -0.02370 0.88354
 C256 C -0.00186 -0.00832 0.89108
 H257 H 0.03808 -0.06093 0.90318
 H258 H -0.00981 0.00974 0.88058
 H259 H -0.02284 -0.02713 0.96553
 H260 H -0.04599 -0.05041 0.94189
 N261 N 1.02859 0.59182 0.98382
 N262 N 1.05188 0.58620 0.99786
 C263 C 1.05604 0.60536 1.01916
 C264 C 1.03421 0.62377 1.01811
 C265 C 1.01718 0.61463 0.99559
 H266 H 1.07328 0.60568 1.03450
 H267 H 0.99770 0.62365 0.98862
 Cu268 Cu 1.07373 0.55380 0.98708
 Cu269 Cu 1.01411 0.56888 0.95179
 Cu270 Cu 1.05310 0.51192 0.93166
 N271 N 1.09574 0.52190 0.97520
 N272 N 1.08742 0.50574 0.95344
 C273 C 1.10559 0.48492 0.95008
 C274 C 1.12634 0.48827 0.97076
 C275 C 1.11958 0.51179 0.98646
 H276 H 1.10353 0.46819 0.93422
 H277 H 1.13083 0.52041 1.00498
 N278 N 1.01780 0.52154 0.91222
 N279 N 1.00291 0.54324 0.91993
 C280 C 0.98036 0.54464 0.90229
 C281 C 0.98126 0.52281 0.88279
 C282 C 1.00513 0.50856 0.88948
 H283 H 0.96471 0.56059 0.90319
 H284 H 1.01287 0.49044 0.87831
 H285 H 1.03204 0.53187 0.96340
 H286 H 1.05266 0.55477 0.93993
 N287 N 0.52840 0.09209 0.48412
 N288 N 0.55218 0.08704 0.49757
 C289 C 0.55627 0.10611 0.51895
 C290 C 0.53391 0.12391 0.51854
 C291 C 0.51663 0.11447 0.49633
 H292 H 0.57388 0.10682 0.53388
 H293 H 0.49676 0.12301 0.48984
 Cu294 Cu 0.57502 0.05564 0.48598
 Cu295 Cu 0.51390 0.06907 0.45220
 Cu296 Cu 0.55289 0.01227 0.43197
 N297 N 0.59609 0.02286 0.47479
 N298 N 0.58730 0.00619 0.45358
 C299 C 0.60514 -0.01496 0.45059
 C300 C 0.62616 -0.01132 0.47096
 C301 C 0.61991 0.01272 0.48610
 H302 H 0.60269 -0.03208 0.43519
 H303 H 0.63150 0.02172 0.50424
 N304 N 0.51753 0.02177 0.41266
 N305 N 0.50261 0.04343 0.42041
 C306 C 0.48001 0.04478 0.40285
 C307 C 0.48088 0.02294 0.38334
 C308 C 0.50482 0.00876 0.38997
 H309 H 0.46434 0.06072 0.40380
 H310 H 0.51259 -0.00934 0.37877
 H311 H 0.53292 0.03265 0.46425
 H312 H 0.55228 0.05521 0.43942
 N313 N -0.02432 0.09785 0.52259
 N314 N -0.04604 0.08881 0.50666
 C315 C -0.04979 0.10656 0.48555
 C316 C -0.02943 0.12773 0.48855
 C317 C -0.01350 0.12167 0.51210
 H318 H -0.06560 0.10396 0.46881
 H319 H 0.00495 0.13328 0.52052
 Cu320 Cu -0.06655 0.05411 0.51425
 Cu321 Cu -0.01098 0.07729 0.55496
 Cu322 Cu -0.04737 0.01501 0.56834
 N323 N -0.08668 0.01917 0.52180
 N324 N -0.07896 0.00392 0.54304
 C325 C -0.09659 -0.01867 0.54413
 C326 C -0.11625 -0.01739 0.52245
 C327 C -0.10956 0.00679 0.50866
 H328 H -0.09558 -0.03450 0.55985
 H329 H -0.12084 0.01493 0.49081
 N330 N -0.01492 0.02966 0.59162
 N331 N -0.00097 0.05334 0.58666
 C332 C 0.02030 0.05716 0.60596
 C333 C 0.01941 0.03487 0.62372
 C334 C -0.00298 0.01785 0.61412
 H335 H 0.03552 0.07456 0.60682
 H336 H -0.00974 -0.00189 0.62272
 H337 H -0.02512 0.03822 0.53986
 H338 H -0.04911 0.05797 0.56286
 N339 N 0.47603 0.59742 0.02269
 N340 N 0.45449 0.58824 0.00658
 C341 C 0.45084 0.60592 -0.01460
 C342 C 0.47106 0.62721 -0.01145
 C343 C 0.48681 0.62129 0.01226
 H344 H 0.43517 0.60322 -0.03147
 H345 H 0.50511 0.63303 0.02083
 Cu346 Cu 0.43406 0.55347 0.01404
 Cu347 Cu 0.48915 0.57706 0.05526
 Cu348 Cu 0.45269 0.51480 0.06866
 N349 N 0.41378 0.51864 0.02172
 N350 N 0.42129 0.50355 0.04314
 C351 C 0.40359 0.48101 0.04426
 C352 C 0.38412 0.48215 0.02238
 C353 C 0.39099 0.50620 0.00846
 H354 H 0.40441 0.46532 0.06013
 H355 H 0.37985 0.51423 -0.00953
 N356 N 0.48499 0.52960 0.09212
 N357 N 0.49897 0.55327 0.08715
 C358 C 0.52016 0.55714 0.10652
 C359 C 0.51920 0.53490 0.12434
 C360 C 0.49683 0.51787 0.11471
 H361 H 0.53540 0.57453 0.10740
 H362 H 0.49006 0.49814 0.12333
 H363 H 0.47527 0.53782 0.04030
 H364 H 0.45096 0.55768 0.06286
 N365 N 0.52053 -0.08769 0.01888
 N366 N 0.54250 -0.07993 0.00462
 C367 C 0.54436 -0.09746 -0.01789
 C368 C 0.52238 -0.11699 -0.01754
 C369 C 0.50763 -0.11035 0.00596
 H370 H 0.56073 -0.09652 -0.03306
 H371 H 0.48926 -0.12146 0.01335
 Cu372 Cu 0.56696 -0.04839 0.01771
 Cu373 Cu 0.51085 -0.06844 0.05360
 Cu374 Cu 0.55451 -0.01201 0.07711
 N375 N 0.59146 -0.01690 0.03079
 N376 N 0.58657 -0.00264 0.05409
 C377 C 0.60615 0.01838 0.05785
 C378 C 0.62416 0.01695 0.03579
 C379 C 0.61431 -0.00551 0.01901
 H380 H 0.60692 0.03384 0.07498
 H381 H 0.62290 -0.01263 -0.00056
 N382 N 0.52103 -0.02494 0.09727
 N383 N 0.50453 -0.04642 0.08823
 C384 C 0.48332 -0.04972 0.10596
 C385 C 0.48673 -0.02945 0.12704
 C386 C 0.51066 -0.01399 0.12104
 H387 H 0.46633 -0.06533 0.10349
 H388 H 0.51948 0.00414 0.13282
 H389 H 0.52903 -0.02969 0.04509
 H390 H 0.55117 -0.05408 0.06531
 N391 N 1.02023 0.41259 0.51850
 N392 N 1.04222 0.42027 0.50422
 C393 C 1.04397 0.40276 0.48167
 C394 C 1.02192 0.38332 0.48201
 C395 C 1.00724 0.38999 0.50556
 H396 H 1.06030 0.40366 0.46646
 H397 H 0.98888 0.37890 0.51299
 Cu398 Cu 1.06684 0.45171 0.51722
 Cu399 Cu 1.01075 0.43182 0.55330
 Cu400 Cu 1.05447 0.48821 0.57663
 N401 N 1.09126 0.48330 0.53020
 N402 N 1.08638 0.49760 0.55346
 C403 C 1.10591 0.51868 0.55713
 C404 C 1.12385 0.51726 0.53501
 C405 C 1.11404 0.49473 0.51831
 H406 H 1.10670 0.53413 0.57425
 H407 H 1.12260 0.48760 0.49873
 N408 N 1.02113 0.47528 0.59697
 N409 N 1.00459 0.45381 0.58799
 C410 C 0.98345 0.45055 0.60579
 C411 C 0.98693 0.47082 0.62686
 C412 C 1.01084 0.48627 0.62076
 H413 H 0.96640 0.43499 0.60337
 H414 H 1.01968 0.50444 0.63248
 H415 H 1.02904 0.47051 0.54461
 H416 H 1.05118 0.44614 0.56487
 C417 C 0.35546 0.02771 0.24215
 C418 C 0.33855 0.00029 0.24573
 C419 C 0.35489 -0.02213 0.25056
 C420 C 0.38675 -0.01519 0.25135
 C421 C 0.37431 0.03141 0.26867
 C422 C 0.39064 0.00894 0.27346
 C423 C 0.37552 0.02144 0.21851
 C424 C 0.39194 -0.00095 0.22337
 H425 H 0.31570 -0.00117 0.24509
 H426 H 0.40004 -0.03353 0.25526
 H427 H 0.37510 0.05028 0.28212
 H428 H 0.37718 0.03404 0.20001
 C429 C 0.14235 -0.03447 0.74604
 C430 C 0.16005 -0.00750 0.75257
 C431 C 0.14442 0.01547 0.75771
 C432 C 0.11242 0.00948 0.75598
 C433 C 0.12325 -0.03762 0.77102
 C434 C 0.10760 -0.01465 0.77622
 C435 C 0.12265 -0.02736 0.72141
 C436 C 0.10706 -0.00432 0.72663
 H437 H 0.18287 -0.00641 0.75203
 H438 H 0.09967 0.02819 0.76028
 H439 H 0.12207 -0.05639 0.78337
 H440 H 0.12155 -0.03910 0.70150
 C441 C 0.64220 0.46569 0.24671
 C442 C 0.65974 0.49273 0.25335
 C443 C 0.64398 0.51560 0.25847
 C444 C 0.61201 0.50946 0.25663
 C445 C 0.62304 0.46239 0.27162
 C446 C 0.60724 0.48526 0.27680
 C447 C 0.62255 0.47275 0.22203
 C448 C 0.60681 0.49569 0.22725
 H449 H 0.68257 0.49394 0.25284
 H450 H 0.59914 0.52810 0.26090
 H451 H 0.62196 0.44363 0.28398
 H452 H 0.62158 0.46105 0.20210
 C453 C 0.85562 0.52805 0.74202
 C454 C 0.83870 0.50061 0.74541
 C455 C 0.85503 0.47815 0.75007
 C456 C 0.88688 0.48506 0.75089
 C457 C 0.87448 0.53155 0.76855
 C458 C 0.89080 0.50905 0.77315
 C459 C 0.87567 0.52195 0.71833
 C460 C 0.89206 0.49949 0.72303
 H461 H 0.81584 0.49915 0.74475
 H462 H 0.90016 0.46669 0.75466
 H463 H 0.87533 0.55035 0.78211
 H464 H 0.87737 0.53470 0.69994
 C465 C 0.24232 0.35701 0.02733
 C466 C 0.24562 0.34028 -0.00016
 C467 C 0.25027 0.35676 -0.02245
 C468 C 0.25114 0.38855 -0.01535
 C469 C 0.26900 0.37580 0.03085
 C470 C 0.27357 0.39228 0.00852
 C471 C 0.21856 0.37713 0.02142
 C472 C 0.22323 0.39366 -0.00086
 H473 H 0.24491 0.31744 -0.00175
 H474 H 0.25487 0.40196 -0.03358
 H475 H 0.28277 0.37638 0.04948
 H476 H 0.20014 0.37874 0.03417
 C477 C 0.74614 0.14037 -0.03395
 C478 C 0.75283 0.15803 -0.00709
 C479 C 0.75813 0.14239 0.01578
 C480 C 0.75638 0.11041 0.00981
 C481 C 0.77122 0.12130 -0.03720
 C482 C 0.77657 0.10562 -0.01434
 C483 C 0.72148 0.12066 -0.02676
 C484 C 0.72686 0.10502 -0.00384
 H485 H 0.75238 0.18084 -0.00601
 H486 H 0.76077 0.09766 0.02845
 H487 H 0.78355 0.12017 -0.05595
 H488 H 0.70145 0.11950 -0.03841
 C489 C 0.24651 0.64051 0.46590
 C490 C 0.25298 0.65816 0.49282
 C491 C 0.25807 0.64250 0.51572
 C492 C 0.25634 0.61053 0.50973
 C493 C 0.27161 0.62143 0.46286
 C494 C 0.27674 0.60574 0.48575
 C495 C 0.22176 0.62081 0.47286
 C496 C 0.22692 0.60517 0.49584
 H497 H 0.25247 0.68097 0.49391
 H498 H 0.26058 0.59777 0.52840
 H499 H 0.28405 0.62027 0.44421
 H500 H 0.20185 0.61964 0.46101
 C501 C 0.74208 0.85727 0.52757
 C502 C 0.74531 0.84061 0.50003
 C503 C 0.74993 0.85715 0.47777
 C504 C 0.75083 0.88892 0.48497
 C505 C 0.76877 0.87604 0.53109
 C506 C 0.77331 0.89259 0.50880
 C507 C 0.71832 0.87742 0.52177
 C508 C 0.72295 0.89400 0.49952
 H509 H 0.74462 0.81778 0.49837
 H510 H 0.75454 0.90238 0.46677
 H511 H 0.78253 0.87661 0.54973
 H512 H 0.69992 0.87900 0.53457
 C513 C 0.02756 0.24217 0.35643
 C514 C 0.00004 0.24568 0.33966
 C515 C -0.02236 0.25046 0.35600
 C516 C -0.01531 0.25128 0.38771
 C517 C 0.03124 0.26880 0.37517
 C518 C 0.00880 0.27352 0.39152
 C519 C 0.02139 0.21844 0.37645
 C520 C -0.00099 0.22327 0.39287
 H521 H -0.00151 0.24491 0.31689
 H522 H -0.03362 0.25514 0.40101
 H523 H 0.05008 0.28236 0.37590
 H524 H 0.03408 0.19995 0.37814
 C525 C -0.03417 0.74649 0.14092
 C526 C -0.00723 0.75320 0.15857
 C527 C 0.01577 0.75835 0.14304
 C528 C 0.00986 0.75641 0.11115
 C529 C -0.03733 0.77145 0.12176
 C530 C -0.01433 0.77663 0.10617
 C531 C -0.02700 0.72172 0.12145
 C532 C -0.00391 0.72692 0.10594
 H533 H -0.00622 0.75288 0.18133
 H534 H 0.02860 0.76069 0.09846
 H535 H -0.05610 0.78383 0.12052
 H536 H -0.03885 0.70179 0.12030
 C537 C 0.46573 0.24628 0.64195
 C538 C 0.49267 0.25293 0.65962
 C539 C 0.51568 0.25808 0.64410
 C540 C 0.50977 0.25620 0.61220
 C541 C 0.46260 0.27129 0.62283
 C542 C 0.48560 0.27647 0.60726
 C543 C 0.47287 0.22153 0.62245
 C544 C 0.49596 0.22672 0.60694
 H545 H 0.49367 0.25258 0.68237
 H546 H 0.52853 0.26047 0.59954
 H547 H 0.44383 0.28367 0.62160
 H548 H 0.46096 0.20163 0.62123
 C549 C 0.52751 0.74207 0.85661
 C550 C 0.49991 0.74547 0.83997
 C551 C 0.47759 0.75023 0.85642
 C552 C 0.48480 0.75111 0.88810
 C553 C 0.53121 0.76874 0.87529
 C554 C 0.50885 0.77342 0.89176
 C555 C 0.52154 0.71837 0.87671
 C556 C 0.49923 0.72315 0.89322
 H557 H 0.49826 0.74478 0.81720
 H558 H 0.46654 0.75493 0.90149
 H559 H 0.55003 0.78234 0.87590
 H560 H 0.53427 0.69990 0.87833
 C561 C 0.11290 0.22658 0.29058
 C562 C 0.09370 0.22966 0.30603
 C563 C 0.07106 0.23358 0.32381
 C564 C 0.05152 0.23725 0.33871
 C565 C 0.61276 0.72672 0.79065
 C566 C 0.59353 0.72974 0.80607
 C567 C 0.57089 0.73359 0.82384
 C568 C 0.55140 0.73721 0.83879
 C569 C 0.38290 0.76653 0.80100
 C570 C 0.40333 0.76347 0.81604
 C571 C 0.42816 0.75924 0.83211
 C572 C 0.45021 0.75527 0.84423
 C573 C -0.11713 0.26574 0.30029
 C574 C -0.09667 0.26288 0.31536
 C575 C -0.07182 0.25895 0.33149
 C576 C -0.04975 0.25523 0.34368
 C577 C -0.11987 0.72913 0.20659
 C578 C -0.10086 0.73255 0.19085
 C579 C -0.07830 0.73696 0.17288
 C580 C -0.05865 0.74107 0.15808
 C581 C 0.37989 0.22897 0.70753
 C582 C 0.39895 0.23238 0.69183
 C583 C 0.42156 0.23678 0.67390
 C584 C 0.44123 0.24088 0.65911
 C585 C 0.61193 0.27127 0.70078
 C586 C 0.59086 0.26888 0.68606
 C587 C 0.56553 0.26566 0.66986
 C588 C 0.54323 0.26248 0.65726
 C589 C 0.11195 0.77185 0.19973
 C590 C 0.09092 0.76937 0.18498
 C591 C 0.06561 0.76605 0.16877
 C592 C 0.04332 0.76281 0.15618
 C593 C 0.28981 0.11320 0.22606
 C594 C 0.30516 0.09393 0.22936
 C595 C 0.32287 0.07125 0.23343
 C596 C 0.33775 0.05169 0.23718
 C597 C 0.79012 0.61375 0.72673
 C598 C 0.80541 0.59442 0.72988
 C599 C 0.82308 0.57167 0.73372
 C600 C 0.83793 0.55207 0.73727
 C601 C 0.79929 0.38348 0.76591
 C602 C 0.81421 0.40400 0.76282
 C603 C 0.83033 0.42883 0.75872
 C604 C 0.84258 0.45084 0.75490
 C605 C 0.29912 -0.11671 0.26682
 C606 C 0.31406 -0.09619 0.26373
 C607 C 0.33018 -0.07138 0.25954
 C608 C 0.34245 -0.04940 0.25558
 C609 C 0.20774 -0.12060 0.72841
 C610 C 0.19219 -0.10139 0.73195
 C611 C 0.17433 -0.07867 0.73644
 C612 C 0.15957 -0.05895 0.74060
 C613 C 0.70794 0.37985 0.22932
 C614 C 0.69236 0.39903 0.23279
 C615 C 0.67443 0.42168 0.23719
 C616 C 0.65955 0.44131 0.24129
 C617 C 0.69980 0.61238 0.27094
 C618 C 0.68527 0.59119 0.26848
 C619 C 0.66930 0.56571 0.26542
 C620 C 0.65692 0.54327 0.26250
 C621 C 0.20059 0.11210 0.77012
 C622 C 0.18600 0.09093 0.76763
 C623 C 0.16996 0.06549 0.76458
 C624 C 0.15749 0.04309 0.76169
 C625 C 0.22642 0.29159 0.11281
 C626 C 0.22971 0.30682 0.09351
 C627 C 0.23379 0.32440 0.07077
 C628 C 0.23751 0.33923 0.05122
 C629 C 0.72627 0.79162 0.61289
 C630 C 0.72955 0.80688 0.59360
 C631 C 0.73361 0.82451 0.57091
 C632 C 0.73731 0.83940 0.55141
 C633 C 0.76594 0.80202 0.38317
 C634 C 0.76282 0.81693 0.40361
 C635 C 0.75865 0.83290 0.42843
 C636 C 0.75478 0.84497 0.45045
 C637 C 0.26633 0.30158 -0.11705
 C638 C 0.26322 0.31647 -0.09658
 C639 C 0.25907 0.33244 -0.07176
 C640 C 0.25518 0.34453 -0.04975
 C641 C 0.72857 0.20558 -0.12002
 C642 C 0.73203 0.19010 -0.10079
 C643 C 0.73646 0.17234 -0.07805
 C644 C 0.74061 0.15760 -0.05836
 C645 C 0.22965 0.70587 0.37983
 C646 C 0.23296 0.69033 0.39902
 C647 C 0.23721 0.67251 0.42176
 C648 C 0.24119 0.65775 0.44146
 C649 C 0.27067 0.69875 0.61197
 C650 C 0.26824 0.68410 0.59091
 C651 C 0.26515 0.66803 0.56557
 C652 C 0.26217 0.65555 0.54326
 C653 C 0.77193 0.19860 0.11192
 C654 C 0.76928 0.18398 0.09087
 C655 C 0.76586 0.16792 0.06555
 C656 C 0.76258 0.15545 0.04326
 C657 C 0.48073 0.36032 0.53813
 C658 C 0.48343 0.34085 0.55349
 C659 C 0.48561 0.31818 0.57181
 C660 C 0.48636 0.29903 0.58776
 C661 C -0.01911 0.86052 0.03714
 C662 C -0.01640 0.84103 0.05246
 C663 C -0.01425 0.81834 0.07074
 C664 C -0.01354 0.79919 0.08668
 C665 C 0.02877 0.64664 0.03735
 C666 C 0.02293 0.66569 0.05315
 C667 C 0.01475 0.68764 0.07143
 C668 C 0.00675 0.70588 0.08705
 C669 C 0.52843 0.14667 0.53791
 C670 C 0.52260 0.16565 0.55380
 C671 C 0.51447 0.18753 0.57220
 C672 C 0.50654 0.20574 0.58793
 C673 C -0.02429 0.14973 0.46927
 C674 C -0.01988 0.16757 0.45246
 C675 C -0.01429 0.18774 0.43217
 C676 C -0.00878 0.20430 0.41442
 C677 C 0.47618 0.64928 0.96936
 C678 C 0.48054 0.66721 0.95263
 C679 C 0.48607 0.68748 0.93243
 C680 C 0.49151 0.70412 0.91474
 C681 C 0.51721 0.85947 0.96330
 C682 C 0.51361 0.83964 0.94717
 C683 C 0.51050 0.81643 0.92815
 C684 C 0.50902 0.79670 0.91171
 C685 C 0.01677 0.35972 0.46292
 C686 C 0.01324 0.33983 0.44683
 C687 C 0.01026 0.31657 0.42785
 C688 C 0.00887 0.29683 0.41143
 C689 C 0.36084 0.53671 0.48066
 C690 C 0.34123 0.55192 0.48352
 C691 C 0.31848 0.57020 0.48577
 C692 C 0.29930 0.58617 0.48653
 C693 C 0.86097 0.03699 -0.01977
 C694 C 0.84132 0.05213 -0.01686
 C695 C 0.81849 0.07028 -0.01453
 C696 C 0.79923 0.08616 -0.01369
 C697 C 0.64706 0.03605 0.02979
 C698 C 0.66603 0.05182 0.02355
 C699 C 0.68785 0.07017 0.01504
 C700 C 0.70596 0.08592 0.00688
 C701 C 0.14676 0.53635 0.52902
 C702 C 0.16578 0.55211 0.52286
 C703 C 0.18768 0.57043 0.51446
 C704 C 0.20589 0.58614 0.50641
 C705 C 0.14869 0.46941 -0.02386
 C706 C 0.16682 0.45286 -0.01942
 C707 C 0.18729 0.43278 -0.01391
 C708 C 0.20407 0.41516 -0.00852
 C709 C 0.64844 0.96977 0.47647
 C710 C 0.66653 0.95320 0.48098
 C711 C 0.68698 0.93311 0.48652
 C712 C 0.70377 0.91549 0.49190
 C713 C 0.85993 0.96377 0.51698
 C714 C 0.83990 0.94782 0.51328
 C715 C 0.81651 0.92892 0.51018
 C716 C 0.79668 0.91252 0.50878
 C717 C 0.36031 0.46331 0.01682
 C718 C 0.34027 0.44738 0.01305
 C719 C 0.31685 0.42853 0.00989
 C720 C 0.29699 0.41217 0.00847
 C721 C 0.53847 0.47988 0.36075
 C722 C 0.55366 0.48274 0.34121
 C723 C 0.57183 0.48505 0.31848
 C724 C 0.58773 0.48590 0.29932
 C725 C 0.03873 -0.01948 0.86014
 C726 C 0.05397 -0.01671 0.84063
 C727 C 0.07221 -0.01455 0.81792
 C728 C 0.08812 -0.01386 0.79877
 C729 C 0.03862 0.02915 0.64654
 C730 C 0.05437 0.02308 0.66555
 C731 C 0.07259 0.01465 0.68744
 C732 C 0.08818 0.00648 0.70564
 C733 C 0.53839 0.52916 0.14717
 C734 C 0.55413 0.52305 0.16617
 C735 C 0.57235 0.51460 0.18805
 C736 C 0.58793 0.50644 0.20624
 C737 C 0.46773 -0.02426 0.14925
 C738 C 0.45114 -0.01989 0.16729
 C739 C 0.43105 -0.01434 0.18767
 C740 C 0.41343 -0.00885 0.20437
 C741 C 0.96793 0.47612 0.64902
 C742 C 0.95130 0.48056 0.66701
 C743 C 0.93117 0.48615 0.68732
 C744 C 0.91353 0.49165 0.70399
 C745 C 0.96225 0.51739 0.85918
 C746 C 0.94622 0.51364 0.83931
 C747 C 0.92725 0.51045 0.81607
 C748 C 0.91080 0.50900 0.79637
 C749 C 0.46184 0.01751 0.35975
 C750 C 0.44582 0.01375 0.33986
 C751 C 0.42690 0.01052 0.31658
 C752 C 0.41053 0.00901 0.29680
   
