data_POSCAR
  _audit_creation_date              2014-09-24
  _audit_creation_method            'ToBaCCo'
  _symmetry_space_group_name_H-M    'P1'
  _symmetry_Int_Tables_number       1
  _symmetry_cell_setting            triclinic
  loop_
  _symmetry_equiv_pos_as_xyz
 x,y,z
_cell_length_a 37.3275
_cell_length_b 37.6352
_cell_length_c 37.6339
_cell_angle_alpha 91.481200
_cell_angle_beta 89.375500
_cell_angle_gamma 90.748800
loop_
  _atom_site_label
  _atom_site_type_symbol
  _atom_site_fract_x
  _atom_site_fract_y
  _atom_site_fract_z
N1 N 0.58173 0.67217 0.60417
 N2 N 0.57036 0.66130 0.63529
 C3 C 0.54054 0.67905 0.64476
 C4 C 0.53269 0.70212 0.61801
 C5 C 0.55963 0.69740 0.59287
 H6 H 0.52604 0.67601 0.66956
 H7 H 0.56314 0.71171 0.56850
 Cu8 Cu 0.59577 0.62558 0.66087
 Cu9 Cu 0.62549 0.65438 0.58166
 Cu10 Cu 0.67557 0.59721 0.63172
 N11 N 0.61580 0.58154 0.67718
 N12 N 0.64738 0.57075 0.66610
 C13 C 0.65526 0.54031 0.68206
 C14 C 0.62657 0.53072 0.70382
 C15 C 0.60233 0.55819 0.70044
 H16 H 0.68076 0.52720 0.67907
 H17 H 0.57644 0.56075 0.71336
 N18 N 0.69143 0.61442 0.58521
 N19 N 0.67136 0.63408 0.56503
 C20 C 0.68816 0.63827 0.53353
 C21 C 0.72012 0.62003 0.53376
 C22 C 0.72162 0.60588 0.56728
 H23 H 0.67794 0.65337 0.51187
 H24 H 0.74295 0.59022 0.57779
 H25 H 0.62775 0.60639 0.60755
 H26 H 0.64964 0.64632 0.62870
 N27 N 0.90511 0.31020 0.10546
 N28 N 0.91705 0.32490 0.13510
 C29 C 0.94783 0.30939 0.14391
 C30 C 0.95609 0.28361 0.11814
 C31 C 0.92764 0.28439 0.09460
 H32 H 0.96214 0.31549 0.16819
 H33 H 0.92408 0.26819 0.07071
 Cu34 Cu 0.89145 0.36295 0.15955
 Cu35 Cu 0.86136 0.32626 0.08354
 Cu36 Cu 0.83631 0.41143 0.11076
 N37 N 0.87772 0.41044 0.17452
 N38 N 0.85768 0.43014 0.15461
 C39 C 0.85462 0.46261 0.17018
 C40 C 0.87422 0.46335 0.20126
 C41 C 0.88787 0.42947 0.20348
 H42 H 0.83939 0.48415 0.15968
 H43 H 0.90414 0.41942 0.22450
 N44 N 0.81748 0.38708 0.06762
 N45 N 0.82665 0.35450 0.05767
 C46 C 0.80865 0.34490 0.02807
 C47 C 0.78728 0.37284 0.01884
 C48 C 0.79315 0.39893 0.04470
 H49 H 0.81041 0.31925 0.01458
 H50 H 0.78022 0.42445 0.04680
 H51 H 0.87734 0.37642 0.09861
 H52 H 0.83739 0.35876 0.12285
 N53 N 0.41011 0.17978 -0.10646
 N54 N 0.42439 0.16456 -0.13498
 C55 C 0.45084 0.18570 -0.14741
 C56 C 0.45287 0.21593 -0.12579
 C57 C 0.42696 0.21103 -0.09978
 H58 H 0.46756 0.17966 -0.17037
 H59 H 0.42128 0.22863 -0.07731
 Cu60 Cu 0.40713 0.11847 -0.15269
 Cu61 Cu 0.37100 0.15790 -0.07987
 Cu62 Cu 0.33916 0.07621 -0.11148
 N63 N 0.38939 0.07237 -0.16988
 N64 N 0.36243 0.05630 -0.15393
 C65 C 0.35498 0.02552 -0.17146
 C66 C 0.37897 0.02172 -0.19954
 C67 C 0.40009 0.05220 -0.19803
 H68 H 0.33333 0.00748 -0.16467
 H69 H 0.42148 0.05912 -0.21629
 N70 N 0.31929 0.10062 -0.06884
 N71 N 0.33160 0.13161 -0.05670
 C72 C 0.31283 0.14118 -0.02732
 C73 C 0.28786 0.11477 -0.02036
 C74 C 0.29234 0.08971 -0.04747
 H75 H 0.31654 0.16580 -0.01229
 H76 H 0.27703 0.06534 -0.05119
 H77 H 0.38279 0.10582 -0.09393
 H78 H 0.35004 0.12882 -0.12228
 N79 N 0.08346 0.82505 0.39144
 N80 N 0.06395 0.84393 0.37030
 C81 C 0.03614 0.82393 0.35860
 C82 C 0.03870 0.79020 0.37248
 C83 C 0.06887 0.79233 0.39378
 H84 H 0.01609 0.83301 0.34053
 H85 H 0.07858 0.77225 0.41116
 Cu86 Cu 0.07692 0.89265 0.35963
 Cu87 Cu 0.12606 0.84441 0.41468
 Cu88 Cu 0.15590 0.92690 0.38758
 N89 N 0.09752 0.93537 0.33952
 N90 N 0.12815 0.94888 0.35074
 C91 C 0.13644 0.97777 0.33183
 C92 C 0.10942 0.98277 0.30767
 C93 C 0.08538 0.95510 0.31296
 H94 H 0.16087 0.99333 0.33457
 H95 H 0.06119 0.94946 0.29816
 N96 N 0.18000 0.90009 0.42451
 N97 N 0.16854 0.86865 0.43490
 C98 C 0.19057 0.85708 0.46010
 C99 C 0.21744 0.88216 0.46540
 C100 C 0.20968 0.90930 0.44278
 H101 H 0.18758 0.83213 0.47351
 H102 H 0.22450 0.93398 0.44008
 H103 H 0.11521 0.89808 0.41168
 H104 H 0.13815 0.87662 0.37235
 C105 C 0.08702 0.12773 0.15761
 C106 C 0.06108 0.15393 0.15370
 C107 C 0.06344 0.17731 0.12536
 C108 C 0.09151 0.17432 0.10045
 C109 C 0.11762 0.14824 0.10394
 C110 C 0.11544 0.12482 0.13264
 C111 C 0.08547 0.10488 0.18643
 C112 C 0.11207 0.07938 0.19070
 C113 C 0.13992 0.07609 0.16555
 C114 C 0.14194 0.09882 0.13664
 C115 C 0.17037 0.09650 0.11206
 C116 C 0.17294 0.12020 0.08392
 C117 C 0.14630 0.14566 0.07968
 H118 H 0.03944 0.15668 0.17299
 H119 H 0.09324 0.19275 0.07879
 H120 H 0.06391 0.10713 0.20589
 H121 H 0.16035 0.05628 0.16900
 H122 H 0.19089 0.07669 0.11503
 H123 H 0.14835 0.16382 0.05782
 C124 C 0.40294 0.86536 0.65379
 C125 C 0.42791 0.83783 0.65159
 C126 C 0.42716 0.81317 0.62302
 C127 C 0.40195 0.81650 0.59598
 C128 C 0.37701 0.84404 0.59764
 C129 C 0.37726 0.86843 0.62680
 C130 C 0.40298 0.88964 0.68267
 C131 C 0.37714 0.91641 0.68540
 C132 C 0.35188 0.91962 0.65832
 C133 C 0.35177 0.89583 0.62901
 C134 C 0.32656 0.89888 0.60193
 C135 C 0.32671 0.87505 0.57263
 C136 C 0.35170 0.84751 0.57076
 H137 H 0.44756 0.83513 0.67233
 H138 H 0.40174 0.79748 0.57384
 H139 H 0.42287 0.88762 0.70329
 H140 H 0.33220 0.94054 0.66029
 H141 H 0.30694 0.91988 0.60339
 H142 H 0.35131 0.82885 0.54832
 C143 C 0.90343 0.62873 0.33750
 C144 C 0.92966 0.65570 0.33806
 C145 C 0.93144 0.68023 0.36671
 C146 C 0.90612 0.67854 0.39446
 C147 C 0.87958 0.65177 0.39422
 C148 C 0.87831 0.62665 0.36570
 C149 C 0.90251 0.60325 0.30970
 C150 C 0.87778 0.57481 0.31043
 C151 C 0.85208 0.57347 0.33792
 C152 C 0.85215 0.59924 0.36553
 C153 C 0.82701 0.59760 0.39338
 C154 C 0.82858 0.62205 0.42222
 C155 C 0.85473 0.64926 0.42230
 H156 H 0.94926 0.65726 0.31665
 H157 H 0.90761 0.69765 0.41647
 H158 H 0.92175 0.60481 0.28798
 H159 H 0.83265 0.55180 0.33823
 H160 H 0.80640 0.57702 0.39294
 H161 H 0.85585 0.66825 0.44444
 C162 C 0.59262 0.37431 -0.16159
 C163 C 0.56422 0.34974 -0.15890
 C164 C 0.56339 0.32503 -0.13157
 C165 C 0.59147 0.32458 -0.10708
 C166 C 0.62015 0.34887 -0.10949
 C167 C 0.62080 0.37384 -0.13688
 C168 C 0.59342 0.39924 -0.18865
 C169 C 0.62213 0.42344 -0.19137
 C170 C 0.65018 0.42293 -0.16693
 C171 C 0.64971 0.39826 -0.13963
 C172 C 0.67766 0.39751 -0.11510
 C173 C 0.67713 0.37260 -0.08798
 C174 C 0.64827 0.34855 -0.08509
 H175 H 0.54274 0.34966 -0.17808
 H176 H 0.59086 0.30528 -0.08616
 H177 H 0.57191 0.39978 -0.20776
 H178 H 0.67230 0.44171 -0.16933
 H179 H 0.69990 0.41622 -0.11698
 H180 H 0.64796 0.32948 -0.06398
 C181 C 0.00528 0.19927 0.10514
 C182 C -0.02032 0.22559 0.10230
 C183 C -0.01486 0.25983 0.11745
 C184 C 0.01914 0.26813 0.13288
 C185 C 0.04476 0.24089 0.13645
 C186 C 0.03741 0.20628 0.12275
 C187 C 0.07748 0.24936 0.15305
 N188 N 0.08495 0.28337 0.16338
 N189 N 0.06207 0.30943 0.15789
 C190 C 0.02979 0.30311 0.14264
 H191 H -0.00029 0.17295 0.09401
 H192 H -0.04543 0.21820 0.08983
 H193 H 0.09741 0.22937 0.15745
 H194 H 0.01363 0.32578 0.13701
 C195 C 0.48871 0.79123 0.61367
 C196 C 0.51396 0.76431 0.61179
 C197 C 0.50408 0.72895 0.61813
 C198 C 0.46765 0.72047 0.62551
 C199 C 0.44197 0.74795 0.62755
 C200 C 0.45277 0.78353 0.62156
 C201 C 0.40623 0.73887 0.63583
 N202 N 0.39680 0.70440 0.64062
 N203 N 0.42066 0.67847 0.63770
 C204 C 0.45567 0.68527 0.63021
 H205 H 0.49726 0.81834 0.60894
 H206 H 0.54165 0.77127 0.60609
 H207 H 0.38570 0.75879 0.63855
 H208 H 0.47357 0.66303 0.62756
 C209 C 0.95157 0.74273 0.36274
 C210 C 0.97789 0.76927 0.36267
 C211 C 1.01417 0.76146 0.36827
 C212 C 1.02393 0.72506 0.37111
 C213 C 0.99680 0.69824 0.37220
 C214 C 0.96046 0.70734 0.36789
 C215 C 1.00701 0.66286 0.37717
 N216 N 1.04216 0.65455 0.37821
 N217 N 1.06772 0.67916 0.37437
 C218 C 1.05986 0.71390 0.37041
 H219 H 0.92389 0.74993 0.35892
 H220 H 0.96921 0.79640 0.35999
 H221 H 0.98741 0.64167 0.37995
 H222 H 1.08185 0.73198 0.36531
 C223 C 0.54224 0.26254 -0.13381
 C224 C 0.51555 0.23639 -0.13320
 C225 C 0.47950 0.24534 -0.12807
 C226 C 0.47018 0.28171 -0.12423
 C227 C 0.49751 0.30834 -0.12423
 C228 C 0.53378 0.29854 -0.12943
 C229 C 0.48756 0.34399 -0.11863
 N230 N 0.45249 0.35241 -0.11504
 N231 N 0.42675 0.32763 -0.11661
 C232 C 0.43434 0.29266 -0.12122
 H233 H 0.56981 0.25463 -0.13794
 H234 H 0.52323 0.20880 -0.13621
 H235 H 0.50726 0.36525 -0.11693
 H236 H 0.41221 0.27398 -0.12300
 C237 C 0.10371 0.01994 0.21611
 C238 C 0.10240 -0.00317 0.24442
 C239 C 0.10868 0.00922 0.27927
 C240 C 0.11537 0.04601 0.28578
 C241 C 0.11698 0.06948 0.25687
 C242 C 0.11101 0.05618 0.22183
 C243 C 0.12494 0.10559 0.26402
 N244 N 0.12959 0.11744 0.29800
 N245 N 0.12687 0.09566 0.32524
 C246 C 0.11982 0.06045 0.32034
 H247 H 0.09903 0.00945 0.18945
 H248 H 0.09724 -0.03116 0.23892
 H249 H 0.12756 0.12451 0.24299
 H250 H 0.11729 0.04431 0.34357
 C251 C 0.60263 0.47999 -0.21596
 C252 C 0.60291 0.50562 -0.24196
 C253 C 0.62368 0.50153 -0.27326
 C254 C 0.64192 0.46871 -0.27933
 C255 C 0.64245 0.44321 -0.25213
 C256 C 0.62295 0.44929 -0.22021
 C257 C 0.66160 0.41165 -0.25820
 N258 N 0.67745 0.40512 -0.29021
 N259 N 0.67502 0.42781 -0.31658
 C260 C 0.65745 0.45898 -0.31245
 H261 H 0.58704 0.48456 -0.19185
 H262 H 0.58814 0.52969 -0.23629
 H263 H 0.66355 0.39180 -0.23804
 H264 H 0.65449 0.47483 -0.33566
 C265 C 0.38185 0.97808 0.70937
 C266 C 0.38304 1.00326 0.73708
 C267 C 0.37968 0.99315 0.77256
 C268 C 0.37584 0.95651 0.78016
 C269 C 0.37358 0.93093 0.75181
 C270 C 0.37716 0.94189 0.71614
 C271 C 0.36738 0.89513 0.76022
 N272 N 0.36577 0.88548 0.79465
 N273 N 0.36984 0.90918 0.82122
 C274 C 0.37497 0.94424 0.81518
 H275 H 0.38474 0.98691 0.68230
 H276 H 0.38604 1.03104 0.73065
 H277 H 0.36361 0.87472 0.73983
 H278 H 0.37892 0.96194 0.83786
 C279 C 0.84769 0.53915 0.26291
 C280 C 0.84708 0.51290 0.23615
 C281 C 0.87773 0.49314 0.22766
 C282 C 0.91007 0.50100 0.24599
 C283 C 0.91020 0.52652 0.27446
 C284 C 0.87882 0.54625 0.28245
 C285 C 0.94177 0.53099 0.29432
 N286 N 0.97181 0.51332 0.28440
 N287 N 0.97239 0.49135 0.25613
 C288 C 0.94269 0.48475 0.23651
 H289 H 0.82351 0.55398 0.26856
 H290 H 0.82215 0.50749 0.22245
 H291 H 0.94294 0.54813 0.31775
 H292 H 0.94521 0.46741 0.21336
 C293 C 0.19684 0.10922 0.02318
 C294 C 0.22462 0.10729 -0.00175
 C295 C 0.26010 0.11479 0.00804
 C296 C 0.26778 0.12337 0.04414
 C297 C 0.23936 0.12587 0.06944
 C298 C 0.20366 0.11852 0.05874
 C299 C 0.24767 0.13614 0.10465
 N300 N 0.28226 0.14182 0.11407
 N301 N 0.30905 0.13802 0.09070
 C302 C 0.30304 0.12888 0.05617
 H303 H 0.16970 0.10349 0.01464
 H304 H 0.21823 0.10063 -0.02916
 H305 H 0.22708 0.13980 0.12477
 H306 H 0.32596 0.12554 0.03871
 C307 C 0.78151 0.64997 0.45999
 C308 C 0.75497 0.64919 0.48623
 C309 C 0.74758 0.61816 0.50493
 C310 C 0.76730 0.58696 0.49637
 C311 C 0.79558 0.58831 0.47085
 C312 C 0.80204 0.61989 0.45183
 C313 C 0.81672 0.55789 0.46546
 N314 N 0.80820 0.52749 0.48232
 N315 N 0.78010 0.52548 0.50428
 C316 C 0.75927 0.55402 0.51169
 H317 H 0.78590 0.67431 0.44571
 H318 H 0.74027 0.67329 0.49218
 H319 H 0.84003 0.55796 0.44820
 H320 H 0.73629 0.55028 0.52888
 C321 C 0.69897 0.38260 -0.02680
 C322 C 0.72570 0.38332 -0.00128
 C323 C 0.76078 0.37331 -0.01010
 C324 C 0.76923 0.36316 -0.04577
 C325 C 0.74189 0.36219 -0.07172
 C326 C 0.70656 0.37215 -0.06201
 C327 C 0.75082 0.35094 -0.10659
 N328 N 0.78512 0.34250 -0.11504
 N329 N 0.81102 0.34453 -0.09100
 C330 C 0.80431 0.35466 -0.05676
 H331 H 0.67209 0.39038 -0.01906
 H332 H 0.71875 0.39117 0.02580
 H333 H 0.73091 0.34871 -0.12721
 H334 H 0.82659 0.35640 -0.03870
 C335 C 0.26396 0.87169 0.55257
 C336 C 0.23780 0.87277 0.52655
 C337 C 0.24681 0.88083 0.49140
 C338 C 0.28324 0.88745 0.48222
 C339 C 0.30984 0.88666 0.50886
 C340 C 0.30000 0.87834 0.54419
 C341 C 0.34556 0.89441 0.49922
 N342 N 0.35410 0.90115 0.46493
 N343 N 0.32937 0.90066 0.43968
 C344 C 0.29434 0.89391 0.44708
 H345 H 0.25607 0.86518 0.57945
 H346 H 0.21015 0.86756 0.53403
 H347 H 0.36675 0.89528 0.51859
 H348 H 0.27575 0.89323 0.42530
   
