data_POSCAR
  _audit_creation_date              2014-09-24
  _audit_creation_method            'ToBaCCo'
  _symmetry_space_group_name_H-M    'P1'
  _symmetry_Int_Tables_number       1
  _symmetry_cell_setting            triclinic
  loop_
  _symmetry_equiv_pos_as_xyz
 x,y,z
_cell_length_a 43.3271
_cell_length_b 43.3402
_cell_length_c 41.5554
_cell_angle_alpha 89.995000
_cell_angle_beta 89.977800
_cell_angle_gamma 91.585900
loop_
  _atom_site_label
  _atom_site_type_symbol
  _atom_site_fract_x
  _atom_site_fract_y
  _atom_site_fract_z
O1 O -0.02896 0.29562 0.05466
 O2 O 0.03019 0.30248 -0.00852
 O3 O -0.03006 0.30209 -0.00771
 O4 O 0.03107 0.29453 0.05338
 O5 O 0.02902 0.24400 0.04702
 O6 O -0.03099 0.25159 -0.01465
 O7 O 0.02852 0.25202 -0.01517
 O8 O -0.03175 0.24515 0.04762
 Cu9 Cu 0.00069 0.30372 0.02364
 Cu10 Cu -0.00147 0.24309 0.01579
 C11 C -0.04070 0.26934 0.06178
 C12 C 0.03955 0.27854 -0.02280
 C13 C -0.04068 0.27806 -0.02189
 C14 C 0.04068 0.26793 0.06044
 O15 O 0.47838 0.80827 0.52010
 O16 O 0.53610 0.79919 0.45673
 O17 O 0.47667 0.80798 0.45700
 O18 O 0.53669 0.79656 0.51881
 O19 O 0.52591 0.74649 0.51810
 O20 O 0.46662 0.75778 0.45686
 O21 O 0.52623 0.74899 0.45540
 O22 O 0.46765 0.75819 0.51919
 Cu23 Cu 0.50785 0.80807 0.48810
 Cu24 Cu 0.49559 0.74783 0.48713
 C25 C 0.46339 0.78489 0.53080
 C26 C 0.54152 0.77265 0.44557
 C27 C 0.46123 0.78465 0.44663
 C28 C 0.54133 0.76944 0.52911
 O29 O 0.96864 0.70805 -0.04687
 O30 O 1.02925 0.70223 0.01505
 O31 O 0.96971 0.70138 0.01564
 O32 O 1.02839 0.70666 -0.04758
 O33 O 1.03056 0.75731 -0.04290
 O34 O 0.97099 0.75207 0.02078
 O35 O 1.03092 0.75297 0.01956
 O36 O 0.97016 0.75865 -0.04159
 Cu37 Cu 0.99881 0.69954 -0.01651
 Cu38 Cu 1.00079 0.76035 -0.01068
 C39 C 0.95897 0.73443 -0.05488
 C40 C 1.04023 0.72670 0.02812
 C41 C 0.96057 0.72562 0.02938
 C42 C 1.03970 0.73271 -0.05616
 O43 O 0.46708 0.20019 0.48741
 O44 O 0.52709 0.19790 0.54962
 O45 O 0.46712 0.20028 0.54985
 O46 O 0.52719 0.20044 0.48671
 O47 O 0.53006 0.25129 0.48873
 O48 O 0.46897 0.25119 0.54997
 O49 O 0.52926 0.24876 0.55134
 O50 O 0.47022 0.25111 0.48722
 Cu51 Cu 0.49697 0.19462 0.51833
 Cu52 Cu 0.49987 0.25567 0.51952
 C53 C 0.45849 0.22592 0.47650
 C54 C 0.53836 0.22280 0.56132
 C55 C 0.45753 0.22583 0.56043
 C56 C 0.53885 0.22602 0.47688
 O57 O 0.72097 0.01082 -0.03451
 O58 O 0.72552 -0.04990 0.02663
 O59 O 0.72412 0.00977 0.02831
 O60 O 0.72544 -0.04892 -0.03591
 O61 O 0.77636 -0.04522 -0.03663
 O62 O 0.77495 0.01392 0.02636
 O63 O 0.77634 -0.04627 0.02549
 O64 O 0.77179 0.01493 -0.03634
 Cu65 Cu 0.71893 -0.01985 -0.00380
 Cu66 Cu 0.77995 -0.01514 -0.00546
 C67 C 0.74542 0.02328 -0.04600
 C68 C 0.75156 -0.05873 0.03654
 C69 C 0.74942 0.02176 0.03841
 C70 C 0.75128 -0.05741 -0.04683
 O71 O 0.19595 0.48288 0.53334
 O72 O 0.20460 0.54403 0.47228
 O73 O 0.20108 0.48435 0.47116
 O74 O 0.19919 0.54307 0.53500
 O75 O 0.24994 0.54244 0.53883
 O76 O 0.25167 0.48229 0.47614
 O77 O 0.25528 0.54239 0.47652
 O78 O 0.24659 0.48232 0.53877
 Cu79 Cu 0.19512 0.51381 0.50258
 Cu80 Cu 0.25595 0.51219 0.50807
 C81 C 0.21982 0.47216 0.54653
 C82 C 0.23139 0.55342 0.46367
 C83 C 0.22666 0.47322 0.46272
 C84 C 0.22422 0.55295 0.54774
 O85 O 0.27980 0.98642 -0.03077
 O86 O 0.27996 1.04593 0.03284
 O87 O 0.28568 0.98623 0.03208
 O88 O 0.27476 1.04579 -0.02944
 O89 O 0.22429 1.04053 -0.02413
 O90 O 0.23515 0.97926 0.03592
 O91 O 0.22963 1.03883 0.03848
 O92 O 0.22933 0.98062 -0.02592
 Cu93 Cu 0.28512 1.01664 0.00074
 Cu94 Cu 0.22453 1.00929 0.00655
 C95 C 0.25446 0.97338 -0.03938
 C96 C 0.25478 1.05240 0.04666
 C97 C 0.26228 0.97243 0.04436
 C98 C 0.24773 1.05353 -0.03734
 O99 O 0.80001 0.51568 0.51978
 O100 O 0.79720 0.45296 0.46044
 O101 O 0.79351 0.51305 0.45728
 O102 O 0.80198 0.45590 0.52235
 O103 O 0.75130 0.45315 0.52776
 O104 O 0.74288 0.50941 0.46247
 O105 O 0.74649 0.44945 0.46518
 O106 O 0.74929 0.51284 0.52449
 Cu107 Cu 0.80325 0.48484 0.48934
 Cu108 Cu 0.74240 0.48083 0.49539
 C109 C 0.77525 0.52490 0.53246
 C110 C 0.77149 0.44023 0.45290
 C111 C 0.76668 0.52109 0.44884
 C112 C 0.77798 0.44490 0.53627
 C113 C 0.25446 0.27514 0.25463
 C114 C 0.27605 0.25299 0.25361
 C115 C 0.27710 0.23030 0.22701
 C116 C 0.29946 0.25052 0.27937
 C117 C 0.25482 0.29902 0.28022
 C118 C 0.22899 0.27619 0.23089
 C119 C 0.27279 0.19873 0.23354
 C120 C 0.27296 0.17719 0.20853
 C121 C 0.27809 0.18683 0.17664
 C122 C 0.28301 0.21842 0.17022
 C123 C 0.28233 0.24002 0.19521
 C124 C 0.29050 0.24299 0.31091
 C125 C 0.31245 0.24249 0.33553
 C126 C 0.34361 0.24985 0.32900
 C127 C 0.35256 0.25698 0.29730
 C128 C 0.33067 0.25699 0.27259
 C129 C 0.28018 0.31955 0.28389
 C130 C 0.28034 0.34179 0.30826
 C131 C 0.25506 0.34395 0.32934
 C132 C 0.22963 0.32340 0.32538
 C133 C 0.22946 0.30129 0.30094
 C134 C 0.22504 0.30292 0.21254
 C135 C 0.20033 0.30478 0.19112
 C136 C 0.17876 0.28009 0.18798
 C137 C 0.18286 0.25327 0.20645
 C138 C 0.20775 0.25136 0.22770
 H139 H 0.26880 0.19085 0.25797
 H140 H 0.26938 0.15294 0.21408
 H141 H 0.28688 0.22640 0.14582
 H142 H 0.28590 0.26431 0.18980
 H143 H 0.26647 0.23789 0.31647
 H144 H 0.30500 0.23706 0.35981
 H145 H 0.33789 0.26286 0.24835
 H146 H 0.29975 0.31845 0.26775
 H147 H 0.30003 0.35759 0.31029
 H148 H 0.21000 0.32412 0.34146
 H149 H 0.20971 0.28559 0.29846
 H150 H 0.24119 0.32233 0.21477
 H151 H 0.19823 0.32554 0.17690
 H152 H 0.16643 0.23405 0.20508
 H153 H 0.21010 0.23076 0.24216
 H154 H 0.37650 0.26244 0.29167
 C155 C 0.76211 0.72059 0.23937
 C156 C 0.73673 0.73841 0.23820
 C157 C 0.73291 0.76235 0.21292
 C158 C 0.71249 0.73614 0.26330
 C159 C 0.76551 0.69593 0.26379
 C160 C 0.78763 0.72466 0.21593
 C161 C 0.72719 0.79291 0.22194
 C162 C 0.72525 0.81602 0.19865
 C163 C 0.72920 0.80894 0.16604
 C164 C 0.73413 0.77838 0.15680
 C165 C 0.73548 0.75514 0.18004
 C166 C 0.71955 0.74303 0.29549
 C167 C 0.69627 0.74250 0.31875
 C168 C 0.66561 0.73488 0.31020
 C169 C 0.65872 0.72742 0.27807
 C170 C 0.68196 0.72836 0.25472
 C171 C 0.74339 0.67183 0.26668
 C172 C 0.74713 0.64853 0.28951
 C173 C 0.77314 0.64885 0.30981
 C174 C 0.79535 0.67294 0.30659
 C175 C 0.79164 0.69613 0.28369
 C176 C 0.79392 0.70074 0.19450
 C177 C 0.81635 0.70492 0.17070
 C178 C 0.83344 0.73294 0.16832
 C179 C 0.82759 0.75661 0.19051
 C180 C 0.80483 0.75251 0.21409
 H181 H 0.72492 0.79899 0.24710
 H182 H 0.72126 0.83953 0.20607
 H183 H 0.73685 0.77257 0.13162
 H184 H 0.73896 0.73161 0.17241
 H185 H 0.74296 0.74939 0.30243
 H186 H 0.70213 0.74826 0.34340
 H187 H 0.67615 0.72316 0.22992
 H188 H 0.72338 0.67092 0.25106
 H189 H 0.72989 0.63002 0.29095
 H190 H 0.81542 0.67413 0.32211
 H191 H 0.80900 0.71451 0.28174
 H192 H 0.78071 0.67917 0.19554
 H193 H 0.81975 0.68641 0.15370
 H194 H 0.84066 0.77824 0.18974
 H195 H 0.80037 0.77111 0.23072
 H196 H 0.63520 0.72181 0.27088
 C197 C 0.72498 0.20970 0.25556
 C198 C 0.74570 0.23382 0.25328
 C199 C 0.76972 0.23592 0.22767
 C200 C 0.74576 0.25911 0.27721
 C201 C 0.70143 0.20807 0.28151
 C202 C 0.72460 0.18376 0.23237
 C203 C 0.80073 0.24126 0.23634
 C204 C 0.82381 0.24277 0.21289
 C205 C 0.81640 0.23882 0.18023
 C206 C 0.78534 0.23388 0.17142
 C207 C 0.76215 0.23289 0.19489
 C208 C 0.75464 0.25384 0.30916
 C209 C 0.75421 0.27780 0.33164
 C210 C 0.74446 0.30719 0.32255
 C211 C 0.73555 0.31237 0.29056
 C212 C 0.73655 0.28856 0.26796
 C213 C 0.67939 0.23099 0.28472
 C214 C 0.65773 0.22940 0.30964
 C215 C 0.65754 0.20470 0.33164
 C216 C 0.67929 0.18149 0.32791
 C217 C 0.70096 0.18313 0.30301
 C218 C 0.69798 0.17763 0.21406
 C219 C 0.69763 0.15441 0.19080
 C220 C 0.72384 0.13664 0.18568
 C221 C 0.75019 0.14220 0.20485
 C222 C 0.75053 0.16552 0.22808
 H223 H 0.80717 0.24381 0.26140
 H224 H 0.84758 0.24648 0.22031
 H225 H 0.77900 0.23125 0.14635
 H226 H 0.73833 0.22966 0.18748
 H227 H 0.76189 0.23120 0.31657
 H228 H 0.76112 0.27334 0.35621
 H229 H 0.72968 0.29292 0.24335
 H230 H 0.67895 0.25005 0.26790
 H231 H 0.64090 0.24732 0.31150
 H232 H 0.67993 0.16234 0.34461
 H233 H 0.71773 0.16518 0.30080
 H234 H 0.67775 0.19147 0.21715
 H235 H 0.67713 0.15097 0.17622
 H236 H 0.77052 0.12851 0.20188
 H237 H 0.77109 0.16961 0.24244
 H238 H 0.72823 0.33494 0.28302
 C239 C 0.25408 0.76696 0.24648
 C240 C 0.23075 0.74512 0.24645
 C241 C 0.20635 0.74486 0.22141
 C242 C 0.22815 0.72060 0.27129
 C243 C 0.27687 0.76960 0.27321
 C244 C 0.25734 0.78982 0.21989
 C245 C 0.18715 0.77013 0.21763
 C246 C 0.16577 0.77063 0.19251
 C247 C 0.16323 0.74589 0.17062
 C248 C 0.18196 0.72022 0.17515
 C249 C 0.20311 0.71962 0.20049
 C250 C 0.20088 0.71724 0.28927
 C251 C 0.19813 0.69467 0.31312
 C252 C 0.22248 0.67469 0.31922
 C253 C 0.24965 0.67782 0.30078
 C254 C 0.25243 0.70055 0.27699
 C255 C 0.30855 0.77220 0.26618
 C256 C 0.33029 0.77409 0.29098
 C257 C 0.32071 0.77318 0.32324
 C258 C 0.28903 0.77145 0.33032
 C259 C 0.26728 0.77021 0.30552
 C260 C 0.25795 0.78026 0.18757
 C261 C 0.25761 0.80199 0.16279
 C262 C 0.25790 0.83362 0.16993
 C263 C 0.25933 0.84326 0.20214
 C264 C 0.25890 0.82150 0.22695
 H265 H 0.18909 0.78962 0.23389
 H266 H 0.15124 0.79043 0.19022
 H267 H 0.18094 0.70095 0.15858
 H268 H 0.21779 0.69995 0.20310
 H269 H 0.18190 0.73252 0.28522
 H270 H 0.17709 0.69322 0.32717
 H271 H 0.27348 0.70249 0.26297
 H272 H 0.31648 0.77216 0.24146
 H273 H 0.35463 0.77531 0.28501
 H274 H 0.28116 0.77112 0.35506
 H275 H 0.24296 0.76943 0.31157
 H276 H 0.25781 0.75596 0.18156
 H277 H 0.25691 0.79417 0.13804
 H278 H 0.25958 0.86760 0.20807
 H279 H 0.25876 0.82938 0.25169
 H280 H 0.26862 0.66246 0.30448
 C281 C 0.76929 0.26116 0.76025
 C282 C 0.74760 0.23787 0.76062
 C283 C 0.72083 0.23805 0.73838
 C284 C 0.75008 0.21133 0.78298
 C285 C 0.79377 0.26349 0.78501
 C286 C 0.76963 0.28500 0.73475
 C287 C 0.70052 0.26271 0.73864
 C288 C 0.67657 0.26395 0.71622
 C289 C 0.67240 0.24048 0.69311
 C290 C 0.69235 0.21538 0.69353
 C291 C 0.71623 0.21411 0.71608
 C292 C 0.72634 0.20447 0.80496
 C293 C 0.72926 0.18038 0.82706
 C294 C 0.75586 0.16244 0.82733
 C295 C 0.77928 0.16898 0.80468
 C296 C 0.77638 0.19313 0.78270
 C297 C 0.82480 0.26076 0.77617
 C298 C 0.84782 0.26095 0.79970
 C299 C 0.84017 0.26459 0.83230
 C300 C 0.80918 0.26837 0.84099
 C301 C 0.78610 0.26762 0.81751
 C302 C 0.77482 0.27682 0.70258
 C303 C 0.77399 0.29914 0.67837
 C304 C 0.76755 0.32987 0.68597
 C305 C 0.76267 0.33806 0.71824
 C306 C 0.76406 0.31582 0.74252
 H307 H 0.70344 0.28117 0.75603
 H308 H 0.66127 0.28326 0.71702
 H309 H 0.69003 0.19710 0.67587
 H310 H 0.73173 0.19493 0.71552
 H311 H 0.70588 0.21827 0.80552
 H312 H 0.71095 0.17624 0.84440
 H313 H 0.79472 0.19772 0.76550
 H314 H 0.83104 0.25760 0.75117
 H315 H 0.87161 0.25816 0.79250
 H316 H 0.80279 0.27104 0.86601
 H317 H 0.76223 0.26991 0.82464
 H318 H 0.77927 0.25310 0.69627
 H319 H 0.77767 0.29231 0.65362
 H320 H 0.75785 0.36167 0.72461
 H321 H 0.76004 0.32245 0.76727
 H322 H 0.79977 0.15526 0.80375
 C323 C 0.24607 0.76250 0.74620
 C324 C 0.26856 0.78516 0.74475
 C325 C 0.29069 0.78653 0.71735
 C326 C 0.27225 0.80897 0.77048
 C327 C 0.22076 0.76315 0.77015
 C328 C 0.24585 0.73579 0.72378
 C329 C 0.32261 0.78773 0.72313
 C330 C 0.34343 0.78619 0.69750
 C331 C 0.33258 0.78315 0.66579
 C332 C 0.30071 0.78317 0.65992
 C333 C 0.27996 0.78539 0.68544
 C334 C 0.27182 0.80059 0.80320
 C335 C 0.27379 0.82315 0.82716
 C336 C 0.27745 0.85437 0.81887
 C337 C 0.27942 0.86278 0.78633
 C338 C 0.27668 0.84025 0.76230
 C339 C 0.20134 0.78847 0.77212
 C340 C 0.17759 0.78879 0.79491
 C341 C 0.17292 0.76381 0.81617
 C342 C 0.19258 0.73857 0.81405
 C343 C 0.21601 0.73811 0.79105
 C344 C 0.22043 0.73009 0.70359
 C345 C 0.22089 0.70622 0.68100
 C346 C 0.24662 0.68721 0.67855
 C347 C 0.27164 0.69242 0.69966
 C348 C 0.27126 0.71648 0.72201
 H349 H 0.33137 0.78887 0.74752
 H350 H 0.36797 0.78631 0.70248
 H351 H 0.29192 0.78136 0.63557
 H352 H 0.25545 0.78537 0.68036
 H353 H 0.26971 0.77658 0.81024
 H354 H 0.27262 0.81627 0.85220
 H355 H 0.27749 0.84729 0.73730
 H356 H 0.20448 0.80784 0.75587
 H357 H 0.16261 0.80836 0.79552
 H358 H 0.19013 0.71924 0.83044
 H359 H 0.23088 0.71846 0.78994
 H360 H 0.20063 0.74479 0.70463
 H361 H 0.20142 0.70320 0.66490
 H362 H 0.29152 0.67785 0.69896
 H363 H 0.29090 0.72026 0.73778
 H364 H 0.28232 0.88682 0.77958
 C365 C 0.24882 0.25407 0.75671
 C366 C 0.22637 0.27524 0.75781
 C367 C 0.22496 0.30032 0.73382
 C368 C 0.20286 0.27444 0.78358
 C369 C 0.25091 0.22976 0.78148
 C370 C 0.27326 0.25492 0.73178
 C371 C 0.23218 0.33076 0.74307
 C372 C 0.23377 0.35424 0.72006
 C373 C 0.22756 0.34768 0.68757
 C374 C 0.21927 0.31733 0.67853
 C375 C 0.21819 0.29375 0.70150
 C376 C 0.20998 0.28585 0.81434
 C377 C 0.18816 0.28349 0.83909
 C378 C 0.15915 0.26919 0.83350
 C379 C 0.15209 0.25792 0.80259
 C380 C 0.17370 0.26081 0.77773
 C381 C 0.22904 0.20536 0.78295
 C382 C 0.23159 0.18238 0.80633
 C383 C 0.25608 0.18350 0.82858
 C384 C 0.27779 0.20820 0.82702
 C385 C 0.27531 0.23100 0.80355
 C386 C 0.27602 0.22994 0.71069
 C387 C 0.29950 0.22996 0.68764
 C388 C 0.32097 0.25484 0.68555
 C389 C 0.31814 0.27984 0.70688
 C390 C 0.29451 0.27986 0.72981
 H391 H 0.23757 0.33614 0.76792
 H392 H 0.23999 0.37752 0.72757
 H393 H 0.21454 0.31175 0.65358
 H394 H 0.21262 0.27030 0.69404
 H395 H 0.23252 0.29625 0.81919
 H396 H 0.19416 0.29216 0.86278
 H397 H 0.16800 0.25179 0.75409
 H398 H 0.21025 0.20397 0.76578
 H399 H 0.21476 0.16345 0.80659
 H400 H 0.29659 0.21005 0.84411
 H401 H 0.29229 0.24981 0.80272
 H402 H 0.25983 0.21047 0.71197
 H403 H 0.30067 0.21059 0.67129
 H404 H 0.33456 0.29911 0.70632
 H405 H 0.29307 0.29907 0.74635
 H406 H 0.12980 0.24701 0.79770
 C407 C 0.74139 0.75287 0.73551
 C408 C 0.76178 0.72956 0.73528
 C409 C 0.76005 0.70517 0.71034
 C410 C 0.78653 0.72705 0.75967
 C411 C 0.73997 0.77598 0.76192
 C412 C 0.71923 0.75646 0.70871
 C413 C 0.73403 0.68532 0.70818
 C414 C 0.73239 0.66248 0.68449
 C415 C 0.75670 0.65918 0.66239
 C416 C 0.78277 0.67918 0.66477
 C417 C 0.78451 0.70179 0.68871
 C418 C 0.78813 0.70031 0.77849
 C419 C 0.81096 0.69778 0.80197
 C420 C 0.83309 0.72173 0.80669
 C421 C 0.83173 0.74830 0.78726
 C422 C 0.80861 0.75096 0.76404
 C423 C 0.73697 0.80737 0.75431
 C424 C 0.73414 0.82930 0.77863
 C425 C 0.73469 0.82030 0.81100
 C426 C 0.73768 0.78905 0.81880
 C427 C 0.73973 0.76697 0.79444
 C428 C 0.72978 0.76409 0.67771
 C429 C 0.70871 0.76884 0.65288
 C430 C 0.67684 0.76571 0.65868
 C431 C 0.66639 0.75785 0.68970
 C432 C 0.68744 0.75355 0.71460
 H433 H 0.71510 0.68743 0.72500
 H434 H 0.71226 0.64713 0.68378
 H435 H 0.80168 0.67768 0.64787
 H436 H 0.80471 0.71703 0.69005
 H437 H 0.77124 0.68164 0.77546
 H438 H 0.81091 0.67724 0.81679
 H439 H 0.80798 0.77158 0.74935
 H440 H 0.73682 0.81494 0.72948
 H441 H 0.73192 0.85337 0.77223
 H442 H 0.73782 0.78173 0.84372
 H443 H 0.74075 0.74286 0.80102
 H444 H 0.75429 0.76673 0.67293
 H445 H 0.71725 0.77475 0.62911
 H446 H 0.64191 0.75559 0.69476
 H447 H 0.67901 0.74791 0.73849
 H448 H 0.84873 0.76692 0.78972
 C449 C 0.22999 0.07637 0.09456
 C450 C 0.25466 0.07578 0.07262
 C451 C 0.27912 0.09762 0.07570
 C452 C 0.27885 0.11983 0.10032
 C453 C 0.25415 0.11983 0.12257
 C454 C 0.22983 0.09804 0.11944
 C455 C 0.25412 0.14168 0.14750
 C456 C 0.27818 0.16393 0.15019
 C457 C 0.30234 0.16412 0.12764
 C458 C 0.30281 0.14212 0.10304
 H459 H 0.29814 0.09757 0.05874
 H460 H 0.21065 0.09779 0.13619
 H461 H 0.23520 0.14165 0.16459
 H462 H 0.32187 0.14256 0.08615
 H463 H 0.21092 0.05977 0.09275
 H464 H 0.32116 0.18102 0.12940
 C465 C 0.80512 0.55791 0.57147
 C466 C 0.77679 0.54968 0.55691
 C467 C 0.75003 0.56507 0.56613
 C468 C 0.75157 0.58837 0.58958
 C469 C 0.78012 0.59615 0.60432
 C470 C 0.80675 0.58081 0.59508
 C471 C 0.78161 0.61910 0.62810
 C472 C 0.75500 0.63485 0.63715
 C473 C 0.72678 0.62715 0.62199
 C474 C 0.72505 0.60406 0.59855
 H475 H 0.72808 0.55906 0.55494
 H476 H 0.82884 0.58652 0.60609
 H477 H 0.80345 0.62435 0.63985
 H478 H 0.70300 0.59856 0.58734
 H479 H 0.82605 0.54636 0.56489
 H480 H 0.70601 0.63924 0.62799
 C481 C 0.78120 0.90552 0.06925
 C482 C 0.75277 0.91755 0.05959
 C483 C 0.72533 0.90512 0.07329
 C484 C 0.72625 0.88131 0.09609
 C485 C 0.75491 0.86915 0.10513
 C486 C 0.78222 0.88144 0.09160
 C487 C 0.75571 0.84506 0.12769
 C488 C 0.72827 0.83355 0.14172
 C489 C 0.69997 0.84598 0.13300
 C490 C 0.69891 0.86955 0.11014
 H491 H 0.70313 0.91406 0.06648
 H492 H 0.80440 0.87248 0.09836
 H493 H 0.77759 0.83553 0.13472
 H494 H 0.67675 0.87870 0.10359
 H495 H 0.80276 0.91444 0.05928
 H496 H 0.67869 0.83729 0.14381
 C497 C 0.18908 0.42949 0.57298
 C498 C 0.21642 0.44763 0.57109
 C499 C 0.24052 0.44216 0.59282
 C500 C 0.23731 0.41899 0.61625
 C501 C 0.20990 0.40054 0.61762
 C502 C 0.18593 0.40600 0.59588
 C503 C 0.20689 0.37709 0.64079
 C504 C 0.23066 0.37230 0.66306
 C505 C 0.25762 0.39102 0.66179
 C506 C 0.26102 0.41404 0.63845
 H507 H 0.26160 0.45620 0.59177
 H508 H 0.16472 0.39218 0.59665
 H509 H 0.18593 0.36286 0.64187
 H510 H 0.28214 0.42800 0.63781
 H511 H 0.17023 0.43322 0.55645
 H512 H 0.27626 0.38749 0.67864
 C513 C 0.93279 0.29050 0.11000
 C514 C 0.93489 0.26720 0.08663
 C515 C 0.91302 0.24260 0.08668
 C516 C 0.88905 0.24158 0.10952
 C517 C 0.88742 0.26501 0.13309
 C518 C 0.90945 0.28929 0.13317
 C519 C 0.86368 0.26393 0.15606
 C520 C 0.84112 0.24002 0.15555
 C521 C 0.84259 0.21709 0.13173
 C522 C 0.86647 0.21773 0.10904
 H523 H 0.91423 0.22470 0.06854
 H524 H 0.90850 0.30748 0.15099
 H525 H 0.86249 0.28192 0.17412
 H526 H 0.86724 0.19963 0.09110
 H527 H 0.94938 0.30965 0.11046
 H528 H 0.82553 0.19836 0.13106
 C529 C 0.44419 0.81458 0.57784
 C530 C 0.44116 0.78890 0.55731
 C531 C 0.41703 0.76714 0.56249
 C532 C 0.39604 0.77109 0.58781
 C533 C 0.39967 0.79673 0.60868
 C534 C 0.42379 0.81834 0.60345
 C535 C 0.37904 0.80042 0.63432
 C536 C 0.35438 0.77922 0.63890
 C537 C 0.35059 0.75412 0.61776
 C538 C 0.37140 0.74993 0.59256
 H539 H 0.41436 0.74740 0.54661
 H540 H 0.42683 0.83818 0.61912
 H541 H 0.38183 0.81997 0.65044
 H542 H 0.36817 0.73022 0.57675
 H543 H 0.46269 0.83158 0.57438
 H544 H 0.33172 0.73749 0.62110
 C545 C 0.06896 0.69638 0.06920
 C546 C 0.06352 0.72470 0.05401
 C547 C 0.07963 0.75142 0.06461
 C548 C 0.10053 0.75001 0.09031
 C549 C 0.10533 0.72155 0.10586
 C550 C 0.08958 0.69484 0.09498
 C551 C 0.12564 0.72032 0.13211
 C552 C 0.14158 0.74714 0.14287
 C553 C 0.13697 0.77519 0.12676
 C554 C 0.11654 0.77665 0.10086
 H555 H 0.07580 0.77339 0.05301
 H556 H 0.09305 0.67279 0.10654
 H557 H 0.12862 0.69857 0.14443
 H558 H 0.11334 0.79861 0.08903
 H559 H 0.05679 0.67548 0.06158
 H560 H 0.14943 0.79607 0.13393
 C561 C 0.56913 0.19281 0.60088
 C562 C 0.56224 0.22131 0.58676
 C563 C 0.57847 0.24811 0.59700
 C564 C 0.60140 0.24640 0.62081
 C565 C 0.60803 0.21760 0.63479
 C566 C 0.59170 0.19098 0.62472
 C567 C 0.63096 0.21584 0.65852
 C568 C 0.64769 0.24247 0.66839
 C569 C 0.64091 0.27099 0.65422
 C570 C 0.61795 0.27296 0.63075
 H571 H 0.57350 0.27023 0.58628
 H572 H 0.59647 0.16871 0.63517
 H573 H 0.63559 0.19375 0.66948
 H574 H 0.61331 0.29522 0.62020
 H575 H 0.55696 0.17180 0.59355
 H576 H 0.65373 0.29180 0.66092
 C577 C 0.71410 0.05312 0.91487
 C578 C 0.74285 0.04770 0.92924
 C579 C 0.76870 0.06598 0.92002
 C580 C 0.76576 0.08956 0.89705
 C581 C 0.73671 0.09471 0.88285
 C582 C 0.71108 0.07628 0.89184
 C583 C 0.73368 0.11828 0.85999
 C584 C 0.75926 0.13715 0.85121
 C585 C 0.78806 0.13183 0.86556
 C586 C 0.79130 0.10823 0.88817
 H587 H 0.79098 0.06216 0.93096
 H588 H 0.68864 0.07990 0.88120
 H589 H 0.71144 0.12174 0.84885
 H590 H 0.81373 0.10476 0.89889
 H591 H 0.69381 0.03936 0.92139
 H592 H 0.80807 0.14626 0.85968
 C593 C 0.26331 0.59262 0.43309
 C594 C 0.23477 0.57717 0.43823
 C595 C 0.20954 0.58420 0.41855
 C596 C 0.21277 0.60622 0.39395
 C597 C 0.24149 0.62178 0.38913
 C598 C 0.26660 0.61485 0.40888
 C599 C 0.24461 0.64401 0.36468
 C600 C 0.21942 0.65076 0.34474
 C601 C 0.19108 0.63480 0.34959
 C602 C 0.18776 0.61283 0.37400
 H603 H 0.18747 0.57228 0.42208
 H604 H 0.28880 0.62653 0.40552
 H605 H 0.26649 0.65637 0.36153
 H606 H 0.16563 0.60095 0.37720
 H607 H 0.28310 0.58765 0.44794
 H608 H 0.17145 0.63909 0.33427
 C609 C 0.22668 0.93389 0.92915
 C610 C 0.25407 0.95090 0.93617
 C611 C 0.28086 0.94499 0.91810
 C612 C 0.28015 0.92284 0.89339
 C613 C 0.25263 0.90558 0.88722
 C614 C 0.22608 0.91128 0.90522
 C615 C 0.25205 0.88303 0.86299
 C616 C 0.27838 0.87813 0.84424
 C617 C 0.30544 0.89577 0.84991
 C618 C 0.30644 0.91778 0.87455
 H619 H 0.30215 0.95796 0.92278
 H620 H 0.20475 0.89836 0.90067
 H621 H 0.23107 0.86952 0.85838
 H622 H 0.32770 0.93091 0.87876
 H623 H 0.20562 0.93769 0.94247
 H624 H 0.32590 0.89217 0.83555
 C625 C 0.79770 0.39723 0.42498
 C626 C 0.77094 0.41422 0.42991
 C627 C 0.74392 0.40617 0.41279
 C628 C 0.74378 0.38164 0.39069
 C629 C 0.77076 0.36448 0.38627
 C630 C 0.79755 0.37244 0.40356
 C631 C 0.77062 0.33986 0.36439
 C632 C 0.74411 0.33259 0.34624
 C633 C 0.71751 0.34994 0.35043
 C634 C 0.71724 0.37412 0.37269
 H635 H 0.72323 0.41928 0.41624
 H636 H 0.81845 0.35961 0.40038
 H637 H 0.79132 0.32674 0.36092
 H638 H 0.69638 0.38705 0.37566
 H639 H 0.81874 0.40290 0.43802
 H640 H 0.69683 0.34455 0.33666
 C641 C 0.07602 0.31052 0.94590
 C642 C 0.06204 0.28150 0.95286
 C643 C 0.07083 0.25568 0.93470
 C644 C 0.09273 0.25887 0.90990
 C645 C 0.10673 0.28808 0.90351
 C646 C 0.09826 0.31369 0.92170
 C647 C 0.12873 0.29124 0.87883
 C648 C 0.13640 0.26571 0.85992
 C649 C 0.12213 0.23684 0.86620
 C650 C 0.10066 0.23338 0.89113
 H651 H 0.06031 0.23313 0.93939
 H652 H 0.10868 0.33627 0.91705
 H653 H 0.13945 0.31364 0.87387
 H654 H 0.09012 0.21082 0.89560
 H655 H 0.06997 0.33092 0.95930
 H656 H 0.12791 0.21686 0.85199
 C657 C 0.58821 0.79394 0.41736
 C658 C 0.56635 0.76965 0.42143
 C659 C 0.56877 0.74282 0.40263
 C660 C 0.59264 0.74046 0.37990
 C661 C 0.61461 0.76498 0.37640
 C662 C 0.61218 0.79157 0.39522
 C663 C 0.63856 0.76269 0.35397
 C664 C 0.64068 0.73643 0.33443
 C665 C 0.61859 0.71228 0.33768
 C666 C 0.59488 0.71417 0.36042
 H667 H 0.55197 0.72401 0.40544
 H668 H 0.62879 0.81059 0.39277
 H669 H 0.65525 0.78162 0.35120
 H670 H 0.57823 0.69517 0.36264
 H671 H 0.58701 0.81478 0.43164
 H672 H 0.61990 0.69184 0.32281
 C673 C 0.92353 0.76580 0.91412
 C674 C 0.93600 0.73691 0.92142
 C675 C 0.92519 0.71070 0.90426
 C676 C 0.90271 0.71336 0.88016
 C677 C 0.89024 0.74243 0.87342
 C678 C 0.90076 0.76846 0.89058
 C679 C 0.86751 0.74502 0.84959
 C680 C 0.85734 0.71900 0.83186
 C681 C 0.87033 0.69027 0.83851
 C682 C 0.89261 0.68744 0.86253
 H683 H 0.93451 0.68823 0.90924
 H684 H 0.89150 0.79095 0.88568
 H685 H 0.85750 0.76727 0.84518
 H686 H 0.90211 0.66500 0.86716
 H687 H 0.93117 0.78649 0.92675
 H688 H 0.86350 0.66991 0.82490
 C689 C 0.41450 0.20069 0.44680
 C690 C 0.43470 0.22631 0.45102
 C691 C 0.43240 0.25183 0.43036
 C692 C 0.41049 0.25154 0.40543
 C693 C 0.39012 0.22573 0.40162
 C694 C 0.39225 0.20050 0.42250
 C695 C 0.36815 0.22545 0.37681
 C696 C 0.36667 0.25034 0.35529
 C697 C 0.38723 0.27573 0.35900
 C698 C 0.40882 0.27644 0.38400
 H699 H 0.44807 0.27158 0.43322
 H700 H 0.37688 0.18051 0.41988
 H701 H 0.35256 0.20565 0.37386
 H702 H 0.42428 0.29637 0.38647
 H703 H 0.41577 0.18081 0.46247
 H704 H 0.38628 0.29523 0.34276
 C705 C 0.77854 0.89976 0.92626
 C706 C 0.75236 0.91805 0.92867
 C707 C 0.72743 0.91271 0.90762
 C708 C 0.72884 0.88961 0.88405
 C709 C 0.75513 0.87102 0.88215
 C710 C 0.77979 0.87624 0.90342
 C711 C 0.75651 0.84784 0.85872
 C712 C 0.73239 0.84366 0.83654
 C713 C 0.70656 0.86241 0.83821
 C714 C 0.70462 0.88502 0.86203
 H715 H 0.70727 0.92692 0.90916
 H716 H 0.80015 0.86230 0.90221
 H717 H 0.77662 0.83356 0.85714
 H718 H 0.68438 0.89913 0.86301
 H719 H 0.79793 0.90341 0.94239
 H720 H 0.68783 0.85939 0.82115
 C721 C 0.20010 0.44218 0.41959
 C722 C 0.22717 0.44967 0.43691
 C723 C 0.25458 0.43461 0.42922
 C724 C 0.25490 0.41236 0.40465
 C725 C 0.22754 0.40518 0.38738
 C726 C 0.20030 0.42023 0.39502
 C727 C 0.22782 0.38305 0.36277
 C728 C 0.25505 0.36766 0.35521
 C729 C 0.28214 0.37494 0.37261
 C730 C 0.28208 0.39712 0.39704
 H731 H 0.27562 0.44008 0.44240
 H732 H 0.17911 0.41500 0.38203
 H733 H 0.20687 0.37808 0.34926
 H734 H 0.30325 0.40222 0.41010
 H735 H 0.17868 0.45344 0.42490
 H736 H 0.30332 0.36316 0.36763
 C737 C 0.21434 0.08657 0.93085
 C738 C 0.24394 0.07649 0.93922
 C739 C 0.26988 0.08984 0.92351
 C740 C 0.26641 0.11264 0.90001
 C741 C 0.23665 0.12272 0.89205
 C742 C 0.21077 0.10954 0.90762
 C743 C 0.23331 0.14582 0.86872
 C744 C 0.25938 0.15884 0.85306
 C745 C 0.28882 0.14826 0.86098
 C746 C 0.29231 0.12549 0.88429
 H747 H 0.29292 0.08244 0.92936
 H748 H 0.18776 0.11695 0.90179
 H749 H 0.21049 0.15396 0.86312
 H750 H 0.31529 0.11785 0.88995
 H751 H 0.19385 0.07687 0.94236
 H752 H 0.30923 0.15740 0.84889
 C753 C 0.73351 0.55580 0.41642
 C754 C 0.76291 0.54444 0.42319
 C755 C 0.78852 0.55587 0.40560
 C756 C 0.78481 0.57841 0.38172
 C757 C 0.75517 0.58981 0.37538
 C758 C 0.72969 0.57830 0.39281
 C759 C 0.75150 0.61265 0.35187
 C760 C 0.77706 0.62428 0.33435
 C761 C 0.80640 0.61253 0.34066
 C762 C 0.81025 0.58987 0.36413
 H763 H 0.81131 0.54729 0.41048
 H764 H 0.70679 0.58675 0.38826
 H765 H 0.72880 0.62175 0.34763
 H766 H 0.83313 0.58131 0.36852
 H767 H 0.71337 0.54749 0.42958
 H768 H 0.82642 0.62069 0.32721
 C769 C 0.07071 0.70684 0.90354
 C770 C 0.06236 0.73402 0.91962
 C771 C 0.07731 0.76217 0.91106
 C772 C 0.10045 0.76296 0.88733
 C773 C 0.10834 0.73547 0.87146
 C774 C 0.09324 0.70762 0.87960
 C775 C 0.13145 0.73611 0.84788
 C776 C 0.14755 0.76377 0.84030
 C777 C 0.13954 0.79107 0.85624
 C778 C 0.11610 0.79070 0.87940
 H779 H 0.07139 0.78339 0.92313
 H780 H 0.09907 0.68632 0.86766
 H781 H 0.13682 0.71497 0.83540
 H782 H 0.11050 0.81202 0.89141
 H783 H 0.05973 0.68476 0.90928
 H784 H 0.15178 0.81265 0.85124
 C785 C 0.57736 0.25473 0.44246
 C786 C 0.56257 0.22665 0.45117
 C787 C 0.57009 0.19956 0.43460
 C788 C 0.59177 0.20061 0.40944
 C789 C 0.60629 0.22903 0.40085
 C790 C 0.59905 0.25590 0.41762
 C791 C 0.62774 0.23019 0.37554
 C792 C 0.63489 0.20329 0.35849
 C793 C 0.62039 0.17511 0.36730
 C794 C 0.59904 0.17377 0.39254
 H795 H 0.55883 0.17776 0.44097
 H796 H 0.61000 0.27788 0.41139
 H797 H 0.63909 0.25199 0.36934
 H798 H 0.58809 0.15177 0.39870
 H799 H 0.57209 0.27595 0.45481
 H800 H 0.62523 0.15411 0.35435
 C801 C 0.91658 0.30632 0.95143
 C802 C 0.93566 0.28067 0.95276
 C803 C 0.93206 0.25721 0.92961
 C804 C 0.90969 0.25925 0.90542
 C805 C 0.89011 0.28481 0.90464
 C806 C 0.89380 0.30826 0.92772
 C807 C 0.86729 0.28645 0.88077
 C808 C 0.86433 0.26321 0.85730
 C809 C 0.88428 0.23824 0.85795
 C810 C 0.90664 0.23615 0.88194
 H811 H 0.94693 0.23750 0.93019
 H812 H 0.87911 0.32808 0.92740
 H813 H 0.85207 0.30589 0.88016
 H814 H 0.92153 0.21648 0.88214
 H815 H 0.91897 0.32466 0.96903
 H816 H 0.88215 0.22004 0.84016
 C817 C 0.43745 0.81308 0.40070
 C818 C 0.43655 0.78837 0.42258
 C819 C 0.41210 0.76644 0.42102
 C820 C 0.38902 0.76880 0.39764
 C821 C 0.39060 0.79313 0.37498
 C822 C 0.41477 0.81530 0.37688
 C823 C 0.36809 0.79466 0.35074
 C824 C 0.34377 0.77254 0.34939
 C825 C 0.34197 0.74903 0.37259
 C826 C 0.36452 0.74703 0.39640
 H827 H 0.41099 0.74752 0.43810
 H828 H 0.41624 0.83422 0.35986
 H829 H 0.36939 0.81301 0.33301
 H830 H 0.36291 0.72834 0.41370
 H831 H 0.45610 0.83022 0.40153
 H832 H 0.32347 0.73170 0.37177
 C833 C 0.29269 0.94913 0.08881
 C834 C 0.26657 0.94826 0.06879
 C835 C 0.24435 0.92430 0.07243
 C836 C 0.24810 0.90146 0.09588
 C837 C 0.27403 0.90301 0.11657
 C838 C 0.29625 0.92685 0.11273
 C839 C 0.27721 0.88072 0.14075
 C840 C 0.25521 0.85653 0.14392
 C841 C 0.23001 0.85467 0.12274
 C842 C 0.22633 0.87711 0.09905
 H843 H 0.22432 0.92328 0.05679
 H844 H 0.31635 0.92829 0.12823
 H845 H 0.29680 0.88201 0.15697
 H846 H 0.20643 0.87548 0.08329
 H847 H 0.31006 0.96745 0.08638
 H848 H 0.21280 0.83619 0.12504
 C849 C 0.80771 0.40481 0.56539
 C850 C 0.78102 0.42232 0.56264
 C851 C 0.75713 0.41809 0.58524
 C852 C 0.75983 0.39667 0.61032
 C853 C 0.78650 0.37871 0.61250
 C854 C 0.81033 0.38301 0.58995
 C855 C 0.78889 0.35683 0.63721
 C856 C 0.76525 0.35316 0.66016
 C857 C 0.73913 0.37152 0.65816
 C858 C 0.73632 0.39296 0.63331
 H859 H 0.73658 0.43172 0.58354
 H860 H 0.83099 0.36954 0.59134
 H861 H 0.80923 0.34288 0.63886
 H862 H 0.71578 0.40661 0.63206
 H863 H 0.82638 0.40766 0.54822
 H864 H 0.72061 0.36885 0.67554
 C865 C 0.77594 0.06311 0.07098
 C866 C 0.74932 0.04484 0.06458
 C867 C 0.72292 0.04838 0.08375
 C868 C 0.72316 0.06973 0.10913
 C869 C 0.75000 0.08809 0.11521
 C870 C 0.77623 0.08465 0.09596
 C871 C 0.75017 0.10964 0.14037
 C872 C 0.72389 0.11305 0.15978
 C873 C 0.69743 0.09441 0.15373
 C874 C 0.69705 0.07300 0.12861
 H875 H 0.70233 0.03427 0.07921
 H876 H 0.79700 0.09853 0.10028
 H877 H 0.77056 0.12417 0.14443
 H878 H 0.67633 0.05899 0.12443
 H879 H 0.79657 0.06086 0.05654
 H880 H 0.67703 0.09626 0.16858
 C881 C 0.19546 0.58348 0.58858
 C882 C 0.22339 0.57686 0.57314
 C883 C 0.25048 0.59332 0.58208
 C884 C 0.24966 0.61624 0.60592
 C885 C 0.22150 0.62252 0.62144
 C886 C 0.19455 0.60596 0.61265
 C887 C 0.22070 0.64535 0.64538
 C888 C 0.24761 0.66246 0.65374
 C889 C 0.27544 0.65611 0.63788
 C890 C 0.27648 0.63313 0.61436
 H891 H 0.27214 0.58860 0.57022
 H892 H 0.17274 0.61049 0.62425
 H893 H 0.19913 0.64960 0.65761
 H894 H 0.29824 0.62879 0.60254
 H895 H 0.17429 0.57108 0.58223
 H896 H 0.29640 0.66926 0.64327
 C897 C 0.93356 0.69396 0.07140
 C898 C 0.93810 0.72262 0.05602
 C899 C 0.92139 0.74808 0.06658
 C900 C 0.90014 0.74479 0.09199
 C901 C 0.89602 0.71587 0.10735
 C902 C 0.91288 0.69066 0.09695
 C903 C 0.87489 0.71246 0.13268
 C904 C 0.85700 0.73733 0.14256
 C905 C 0.86124 0.76604 0.12709
 C906 C 0.88274 0.76978 0.10218
 H907 H 0.92463 0.77027 0.05483
 H908 H 0.90996 0.66832 0.10844
 H909 H 0.87241 0.69034 0.14471
 H910 H 0.88544 0.79209 0.09060
 H911 H 0.94629 0.67404 0.06389
 H912 H 0.84749 0.78551 0.13378
 C913 C 0.42320 0.19879 0.60070
 C914 C 0.43273 0.22614 0.58495
 C915 C 0.41818 0.25384 0.59260
 C916 C 0.39435 0.25419 0.61547
 C917 C 0.38507 0.22658 0.63123
 C918 C 0.39968 0.19903 0.62373
 C919 C 0.36129 0.22697 0.65417
 C920 C 0.34633 0.25456 0.66140
 C921 C 0.35572 0.28185 0.64541
 C922 C 0.37955 0.28169 0.62275
 H923 H 0.42516 0.27509 0.58054
 H924 H 0.39285 0.17763 0.63556
 H925 H 0.35468 0.20582 0.66661
 H926 H 0.38626 0.30304 0.61077
 H927 H 0.43402 0.17716 0.59531
 H928 H 0.34435 0.30332 0.65009
 C929 C 0.08040 0.23639 0.08809
 C930 C 0.06601 0.26483 0.08404
 C931 C 0.07660 0.29047 0.10206
 C932 C 0.10138 0.28784 0.12355
 C933 C 0.11595 0.25927 0.12704
 C934 C 0.10518 0.23366 0.10931
 C935 C 0.14115 0.25682 0.14804
 C936 C 0.15191 0.28254 0.16589
 C937 C 0.13687 0.31073 0.16250
 C938 C 0.11194 0.31338 0.14148
 H939 H 0.06568 0.31252 0.09930
 H940 H 0.11602 0.21154 0.11172
 H941 H 0.15267 0.23503 0.15005
 H942 H 0.10091 0.33542 0.13929
 H943 H 0.07277 0.21628 0.07448
 H944 H 0.14417 0.33076 0.17639
 C945 C 0.56315 0.73724 0.57287
 C946 C 0.56466 0.76435 0.55430
 C947 C 0.58851 0.78632 0.56001
 C948 C 0.61066 0.78118 0.58393
 C949 C 0.60855 0.75404 0.60280
 C950 C 0.58477 0.73222 0.59704
 C951 C 0.63027 0.74914 0.62711
 C952 C 0.65441 0.77077 0.63255
 C953 C 0.65674 0.79738 0.61330
 C954 C 0.63492 0.80265 0.58930
 H955 H 0.59003 0.80718 0.54562
 H956 H 0.58289 0.71125 0.61120
 H957 H 0.62861 0.72838 0.64165
 H958 H 0.63698 0.82352 0.57501
 H959 H 0.54494 0.72002 0.56898
 H960 H 0.67514 0.81437 0.61729
   
