data_POSCAR
  _audit_creation_date              2014-09-24
  _audit_creation_method            'ToBaCCo'
  _symmetry_space_group_name_H-M    'P1'
  _symmetry_Int_Tables_number       1
  _symmetry_cell_setting            triclinic
  loop_
  _symmetry_equiv_pos_as_xyz
 x,y,z
_cell_length_a 39.6998
_cell_length_b 39.7000
_cell_length_c 8.9803
_cell_angle_alpha 90.000000
_cell_angle_beta 90.000000
_cell_angle_gamma 89.999900
loop_
  _atom_site_label
  _atom_site_type_symbol
  _atom_site_fract_x
  _atom_site_fract_y
  _atom_site_fract_z
O1 O 0.28767 0.21695 0.16152
 O2 O 0.22362 0.28241 0.09578
 O3 O 0.28751 0.28252 0.16165
 O4 O 0.22375 0.21679 0.09567
 O5 O 0.21119 0.21675 0.33556
 O6 O 0.27495 0.28248 0.40157
 O7 O 0.21105 0.28235 0.33570
 O8 O 0.27511 0.21689 0.40144
 Cu9 Cu 0.25691 0.24967 0.10450
 Cu10 Cu 0.24179 0.24961 0.39270
 C11 C 0.29223 0.20590 0.29251
 C12 C 0.20652 0.29343 0.20474
 C13 C 0.29201 0.29358 0.29268
 C14 C 0.20669 0.20568 0.20455
 O15 O 0.78776 0.28218 0.33673
 O16 O 0.72400 0.21645 0.40272
 O17 O 0.78792 0.21659 0.33691
 O18 O 0.72387 0.28205 0.40264
 O19 O 0.71131 0.28200 0.16272
 O20 O 0.77537 0.21653 0.09699
 O21 O 0.71144 0.21640 0.16283
 O22 O 0.77520 0.28213 0.09681
 Cu23 Cu 0.75717 0.24932 0.39390
 Cu24 Cu 0.74205 0.24925 0.10569
 C25 C 0.79225 0.29325 0.20571
 C26 C 0.70693 0.20535 0.29385
 C27 C 0.79248 0.20554 0.20593
 C28 C 0.70678 0.29307 0.29370
 O29 O 0.71228 0.71693 0.83823
 O30 O 0.77633 0.78239 0.90397
 O31 O 0.71243 0.78252 0.83812
 O32 O 0.77619 0.71679 0.90410
 O33 O 0.78875 0.71674 0.66421
 O34 O 0.72499 0.78247 0.59820
 O35 O 0.78890 0.78233 0.66405
 O36 O 0.72484 0.71687 0.59831
 Cu37 Cu 0.74303 0.74966 0.89525
 Cu38 Cu 0.75815 0.74960 0.60705
 C39 C 0.70773 0.70587 0.70724
 C40 C 0.79344 0.79340 0.79502
 C41 C 0.70793 0.79358 0.70710
 C42 C 0.79325 0.70568 0.79523
 O43 O 0.28798 0.78336 0.83792
 O44 O 0.22392 0.71790 0.90365
 O45 O 0.28783 0.71778 0.83780
 O46 O 0.22407 0.78351 0.90379
 O47 O 0.21151 0.78356 0.66390
 O48 O 0.27526 0.71783 0.59788
 O49 O 0.21136 0.71796 0.66373
 O50 O 0.27541 0.78341 0.59800
 Cu51 Cu 0.25722 0.75063 0.89494
 Cu52 Cu 0.24210 0.75070 0.60674
 C53 C 0.29253 0.79441 0.70693
 C54 C 0.20682 0.70688 0.79470
 C55 C 0.29233 0.70672 0.70677
 C56 C 0.20701 0.79462 0.79491
 O57 O 0.96824 -0.02580 -0.15257
 O58 O 1.03370 0.03826 -0.08708
 O59 O 1.03383 -0.02567 -0.15274
 O60 O 0.96810 0.03810 -0.08692
 O61 O 0.96815 0.02558 0.15304
 O62 O 1.03388 -0.03819 0.08722
 O63 O 1.03376 0.02574 0.15288
 O64 O 0.96830 -0.03832 0.08740
 Cu65 Cu 1.00097 0.00750 -0.14397
 Cu66 Cu 1.00104 -0.00757 0.14429
 C67 C 0.95723 -0.04289 -0.04356
 C68 C 1.04476 0.04283 0.04388
 C69 C 1.04493 -0.04272 -0.04380
 C70 C 0.95703 0.04261 0.04408
 O71 O 0.53231 0.46164 0.58710
 O72 O 0.46685 0.52568 0.65304
 O73 O 0.46673 0.46179 0.58695
 O74 O 0.53246 0.52553 0.65321
 O75 O 0.53251 0.53814 0.41334
 O76 O 0.46678 0.47439 0.34707
 O77 O 0.46691 0.53828 0.41316
 O78 O 0.53237 0.47424 0.34723
 Cu79 Cu 0.49958 0.49238 0.64422
 Cu80 Cu 0.49965 0.50755 0.35606
 C81 C 0.54337 0.45711 0.45610
 C82 C 0.45584 0.54280 0.54415
 C83 C 0.45568 0.45731 0.45590
 C84 C 0.54357 0.54261 0.54438
 O85 O 0.03206 0.52603 -0.15299
 O86 O -0.03353 0.46210 -0.08750
 O87 O -0.03354 0.52603 -0.15299
 O88 O 0.03205 0.46210 -0.08756
 O89 O 0.03206 0.47458 0.15244
 O90 O -0.03353 0.53851 0.08701
 O91 O -0.03352 0.47458 0.15250
 O92 O 0.03206 0.53851 0.08702
 Cu93 Cu -0.00074 0.49279 -0.14442
 Cu94 Cu -0.00073 0.50782 0.14389
 C95 C 0.04312 0.54308 -0.04396
 C96 C -0.04457 0.45752 0.04349
 C97 C -0.04460 0.54307 -0.04396
 C98 C 0.04311 0.45752 0.04341
 O99 O 0.53346 1.02593 0.34672
 O100 O 0.46785 0.96205 0.41299
 O101 O 0.46784 1.02591 0.34666
 O102 O 0.53344 0.96203 0.41298
 O103 O 0.53344 0.97468 0.65281
 O104 O 0.46784 1.03856 0.58649
 O105 O 0.46784 0.97470 0.65283
 O106 O 0.53345 1.03857 0.58656
 Cu107 Cu 0.50065 0.99270 0.35569
 Cu108 Cu 0.50065 1.00792 0.64381
 C109 C 0.54451 1.04305 0.45553
 C110 C 0.45677 0.95759 0.54401
 C111 C 0.45677 1.04302 0.45547
 C112 C 0.54449 0.95755 0.54402
 C113 C 1.18311 0.18153 0.18048
 C114 C 1.16211 0.16012 0.15943
 C115 C 1.13742 0.13513 0.13507
 C116 C 1.11628 0.11386 0.11436
 C117 C 1.09144 0.08902 0.09007
 C118 C 1.07016 0.06789 0.06915
 C119 C 0.68269 0.68047 0.68187
 C120 C 0.66156 0.65919 0.66083
 C121 C 0.63673 0.63435 0.63639
 C122 C 0.61546 0.61321 0.61556
 C123 C 0.59048 0.58853 0.59106
 C124 C 0.56909 0.56752 0.56993
 C125 C -0.18286 0.31879 0.18028
 C126 C -0.16187 0.34021 0.15924
 C127 C -0.13721 0.36522 0.13485
 C128 C -0.11609 0.38651 0.11410
 C129 C -0.09126 0.41135 0.08975
 C130 C -0.06999 0.43248 0.06879
 C131 C 0.31760 0.81979 0.68154
 C132 C 0.33874 0.84105 0.66049
 C133 C 0.36360 0.86586 0.63603
 C134 C 0.38488 0.88698 0.61519
 C135 C 0.40988 0.91165 0.59068
 C136 C 0.43127 0.93266 0.56955
 C137 C -0.18316 0.68154 -0.18068
 C138 C -0.16213 0.66016 -0.15961
 C139 C -0.13742 0.63520 -0.13521
 C140 C -0.11625 0.61396 -0.11447
 C141 C -0.09136 0.58917 -0.09015
 C142 C -0.07005 0.56808 -0.06922
 C143 C 0.31733 1.18056 0.31793
 C144 C 0.33852 1.15934 0.33899
 C145 C 0.36342 1.13458 0.36346
 C146 C 0.38475 1.11350 0.38431
 C147 C 0.40980 1.08889 0.40881
 C148 C 0.43123 1.06792 0.42994
 C149 C 1.18343 -0.18122 -0.18100
 C150 C 1.16242 -0.15983 -0.15991
 C151 C 1.13773 -0.13485 -0.13547
 C152 C 1.11658 -0.11359 -0.11468
 C153 C 1.09171 -0.08879 -0.09026
 C154 C 1.07039 -0.06770 -0.06922
 C155 C 0.68179 0.31853 0.31902
 C156 C 0.66074 0.33989 0.34002
 C157 C 0.63603 0.36484 0.36440
 C158 C 0.61487 0.38610 0.38517
 C159 C 0.59003 0.41093 0.40959
 C160 C 0.56876 0.43206 0.43066
 C161 C 0.81847 -0.18118 -0.17965
 C162 C 0.83956 -0.15987 -0.15873
 C163 C 0.86434 -0.13497 -0.13449
 C164 C 0.88556 -0.11377 -0.11387
 C165 C 0.91047 -0.08900 -0.08966
 C166 C 0.93179 -0.06791 -0.06879
 C167 C 0.31695 0.31908 0.31815
 C168 C 0.33799 0.34044 0.33925
 C169 C 0.36273 0.36536 0.36375
 C170 C 0.38392 0.38657 0.38463
 C171 C 0.40884 0.41132 0.40916
 C172 C 0.43019 0.43237 0.43032
 C173 C 0.18181 0.68144 -0.18000
 C174 C 0.16074 0.66011 -0.15909
 C175 C 0.13598 0.63518 -0.13488
 C176 C 0.11479 0.61396 -0.11427
 C177 C 0.08989 0.58918 -0.09007
 C178 C 0.06857 0.56808 -0.06920
 C179 C 0.68331 1.18124 0.31797
 C180 C 0.66225 1.15989 0.33908
 C181 C 0.63749 1.13499 0.36355
 C182 C 0.61627 1.11379 0.38439
 C183 C 0.59134 1.08906 0.40887
 C184 C 0.56999 1.06801 0.42999
 C185 C 0.18155 0.31890 0.17945
 C186 C 0.16051 0.34028 0.15855
 C187 C 0.13581 0.36525 0.13434
 C188 C 0.11466 0.38652 0.11374
 C189 C 0.08981 0.41136 0.08954
 C190 C 0.06853 0.43249 0.06866
 C191 C 0.68301 0.81909 0.68165
 C192 C 0.66198 0.84047 0.66057
 C193 C 0.63728 0.86543 0.63611
 C194 C 0.61611 0.88667 0.61527
 C195 C 0.59124 0.91146 0.59076
 C196 C 0.56993 0.93255 0.56961
 C197 C 0.81757 0.18018 0.18056
 C198 C 0.83875 0.15895 0.15960
 C199 C 0.86364 0.13417 0.13530
 C200 C 0.88497 0.11308 0.11463
 C201 C 0.91002 0.08845 0.09035
 C202 C 0.93146 0.06749 0.06941
 C203 C 0.31727 0.68123 0.68131
 C204 C 0.33831 0.65986 0.66024
 C205 C 0.36304 0.63493 0.63581
 C206 C 0.38422 0.61370 0.61502
 C207 C 0.40911 0.58891 0.59061
 C208 C 0.43042 0.56782 0.56957
   
