data_POSCAR
  _audit_creation_date              2014-09-24
  _audit_creation_method            'ToBaCCo'
  _symmetry_space_group_name_H-M    'P1'
  _symmetry_Int_Tables_number       1
  _symmetry_cell_setting            triclinic
  loop_
  _symmetry_equiv_pos_as_xyz
 x,y,z
_cell_length_a 27.4363
_cell_length_b 27.4723
_cell_length_c 46.9992
_cell_angle_alpha 89.855100
_cell_angle_beta 89.452900
_cell_angle_gamma 90.749600
loop_
  _atom_site_label
  _atom_site_type_symbol
  _atom_site_fract_x
  _atom_site_fract_y
  _atom_site_fract_z
O1 O -0.04085 0.45276 1.02771
 O2 O -0.04246 0.54787 0.97233
 O3 O -0.04142 0.45299 0.97234
 O4 O -0.04185 0.54763 1.02770
 O5 O 0.03876 0.54957 1.02695
 O6 O 0.03919 0.45491 0.97159
 O7 O 0.03814 0.54978 0.97159
 O8 O 0.03976 0.45472 1.02695
 Cu9 Cu -0.04977 0.50012 1.00010
 Cu10 Cu 0.04709 0.50244 0.99920
 C11 C -0.00026 0.43761 1.03663
 C12 C -0.00243 0.56497 0.96267
 C13 C -0.00104 0.43788 0.96268
 C14 C -0.00163 0.56466 1.03662
 O15 O 0.45333 0.03915 0.52683
 O16 O 0.55044 0.03814 0.47222
 O17 O 0.45547 0.03898 0.47148
 O18 O 0.54833 0.03801 0.52757
 O19 O 0.54639 -0.04250 0.52769
 O20 O 0.45360 -0.04152 0.47161
 O21 O 0.54856 -0.04236 0.47234
 O22 O 0.45138 -0.04135 0.52696
 Cu23 Cu 0.50208 0.04669 0.49952
 Cu24 Cu 0.49979 -0.05005 0.49967
 C25 C 0.43585 -0.00091 0.53604
 C26 C 0.56600 -0.00228 0.46312
 C27 C 0.43878 -0.00112 0.46213
 C28 C 0.56314 -0.00243 0.53703
 Si29 Si 0.00376 0.00010 0.24999
 Si30 Si -0.00365 0.00055 0.75048
 C31 C -0.00182 -0.39794 0.05784
 C32 C -0.00205 -0.36608 0.07543
 C33 C -0.00240 -0.32755 0.09611
 C34 C -0.03310 -0.28780 0.09246
 C35 C -0.03291 -0.24982 0.11218
 C36 C -0.00193 -0.25107 0.13586
 C37 C 0.02865 -0.29133 0.13942
 C38 C 0.02837 -0.32931 0.11966
 C39 C -0.00109 -0.21019 0.15647
 C40 C 0.04335 -0.19283 0.16751
 C41 C 0.04424 -0.15336 0.18623
 C42 C 0.00078 -0.13080 0.19421
 C43 C -0.04364 -0.14811 0.18360
 C44 C -0.04461 -0.18754 0.16487
 C45 C 0.00184 -0.08914 0.21269
 C46 C 0.00266 -0.05383 0.22783
 H47 H -0.05692 -0.28598 0.07424
 H48 H -0.05635 -0.21903 0.10861
 H49 H 0.05249 -0.29362 0.15759
 H50 H 0.05223 -0.35997 0.12271
 H51 H 0.07751 -0.20906 0.16118
 H52 H 0.07885 -0.14011 0.19422
 H53 H -0.07750 -0.13094 0.18966
 H54 H -0.07944 -0.20046 0.15705
 C55 C 0.00044 0.40001 0.05784
 C56 C 0.00120 0.36802 0.07543
 C57 C 0.00231 0.32934 0.09611
 C58 C 0.04603 0.30554 0.10157
 C59 C 0.04698 0.26704 0.12105
 C60 C 0.00411 0.25181 0.13535
 C61 C -0.03958 0.27629 0.12992
 C62 C -0.04044 0.31476 0.11040
 C63 C 0.00482 0.20999 0.15543
 C64 C -0.02217 0.21105 0.18104
 C65 C -0.02202 0.17126 0.19967
 C66 C 0.00504 0.12994 0.19294
 C67 C 0.03213 0.12862 0.16759
 C68 C 0.03206 0.16834 0.14895
 C69 C 0.00457 0.08859 0.21179
 C70 C 0.00422 0.05356 0.22727
 H71 H 0.07936 0.31659 0.09066
 H72 H 0.08129 0.24937 0.12505
 H73 H -0.07329 0.26505 0.14031
 H74 H -0.07453 0.33281 0.10625
 H75 H -0.04303 0.24280 0.18678
 H76 H -0.04306 0.17268 0.21927
 H77 H 0.05304 0.09673 0.16212
 H78 H 0.05263 0.16611 0.12923
 C79 C 0.39734 -0.00044 0.55688
 C80 C 0.36454 0.00011 0.57412
 C81 C 0.32489 0.00095 0.59438
 C82 C 0.27902 0.01700 0.58597
 C83 C 0.24032 0.01770 0.60550
 C84 C 0.24697 0.00229 0.63376
 C85 C 0.29327 -0.01375 0.64202
 C86 C 0.33196 -0.01437 0.62244
 C87 C 0.20567 0.00261 0.65442
 C88 C 0.19855 -0.03612 0.67374
 C89 C 0.15904 -0.03626 0.69276
 C90 C 0.12621 0.00230 0.69276
 C91 C 0.13319 0.04117 0.67380
 C92 C 0.17263 0.04137 0.65475
 C93 C 0.08483 0.00162 0.71181
 C94 C 0.04980 0.00112 0.72747
 H95 H 0.27312 0.02878 0.56426
 H96 H 0.20498 0.02958 0.59838
 H97 H 0.29969 -0.02529 0.66369
 H98 H 0.36736 -0.02677 0.62918
 H99 H 0.22298 -0.06676 0.67376
 H100 H 0.15386 -0.06662 0.70728
 H101 H 0.10803 0.07125 0.67366
 H102 H 0.17748 0.07201 0.64041
 C103 C -0.40003 -0.00288 0.55846
 C104 C -0.36859 -0.00336 0.57620
 C105 C -0.33051 -0.00399 0.59703
 C106 C -0.33158 0.02815 0.62007
 C107 C -0.29387 0.02829 0.63990
 C108 C -0.25461 -0.00383 0.63691
 C109 C -0.25410 -0.03624 0.61377
 C110 C -0.29179 -0.03627 0.59398
 C111 C -0.21392 -0.00309 0.65754
 C112 C -0.19284 -0.04678 0.66668
 C113 C -0.15350 -0.04597 0.68537
 C114 C -0.13473 -0.00156 0.69518
 C115 C -0.15575 0.04208 0.68647
 C116 C -0.19513 0.04137 0.66779
 C117 C -0.09306 -0.00074 0.71355
 C118 C -0.05771 -0.00014 0.72857
 H119 H -0.36144 0.05322 0.62266
 H120 H -0.29560 0.05326 0.65766
 H121 H -0.22408 -0.06091 0.61066
 H122 H -0.29051 -0.06117 0.57615
 H123 H -0.20688 -0.08159 0.65947
 H124 H -0.13752 -0.07997 0.69201
 H125 H -0.14135 0.07668 0.69384
 H126 H -0.21013 0.07563 0.66087
 C127 C -0.00299 -0.39948 0.94258
 C128 C -0.00337 -0.36755 0.92494
 C129 C -0.00363 -0.32898 0.90416
 C130 C 0.03906 -0.31671 0.88912
 C131 C 0.03924 -0.27834 0.86952
 C132 C -0.00338 -0.25170 0.86470
 C133 C -0.04624 -0.26461 0.87976
 C134 C -0.04631 -0.30298 0.89937
 C135 C -0.00295 -0.21009 0.84445
 C136 C -0.04265 -0.20229 0.82632
 C137 C -0.04256 -0.16249 0.80771
 C138 C -0.00286 -0.13000 0.80696
 C139 C 0.03692 -0.13760 0.82477
 C140 C 0.03693 -0.17737 0.84338
 C141 C -0.00321 -0.08836 0.78833
 C142 C -0.00343 -0.05314 0.77301
 H143 H 0.07228 -0.33666 0.89264
 H144 H 0.07263 -0.26969 0.85801
 H145 H -0.07944 -0.24441 0.87682
 H146 H -0.07952 -0.31204 0.91098
 H147 H -0.07359 -0.22716 0.82638
 H148 H -0.07352 -0.15698 0.79398
 H149 H 0.06776 -0.11255 0.82445
 H150 H 0.06772 -0.18197 0.85732
 C151 C -0.00088 0.40045 0.94146
 C152 C -0.00083 0.36859 0.92387
 C153 C -0.00089 0.33011 0.90315
 C154 C 0.04290 0.31526 0.89059
 C155 C 0.04299 0.27697 0.87105
 C156 C -0.00080 0.25299 0.86381
 C157 C -0.04469 0.26850 0.87637
 C158 C -0.04468 0.30677 0.89592
 C159 C -0.00063 0.21139 0.84368
 C160 C -0.03767 0.20594 0.82337
 C161 C -0.03800 0.16613 0.80488
 C162 C -0.00139 0.13126 0.80646
 C163 C 0.03576 0.13650 0.82645
 C164 C 0.03619 0.17629 0.84493
 C165 C -0.00233 0.08960 0.78796
 C166 C -0.00299 0.05433 0.77278
 H167 H 0.07700 0.33313 0.89601
 H168 H 0.07726 0.26630 0.86147
 H169 H -0.07889 0.25037 0.87154
 H170 H -0.07876 0.31784 0.90561
 H171 H -0.06618 0.23264 0.82165
 H172 H -0.06689 0.16245 0.78945
 H173 H 0.06417 0.10960 0.82793
 H174 H 0.06479 0.17906 0.86059
 C175 C -0.39757 -0.00261 0.44339
 C176 C -0.36475 -0.00278 0.42615
 C177 C -0.32499 -0.00284 0.40596
 C178 C -0.27876 -0.01758 0.41453
 C179 C -0.23977 -0.01688 0.39519
 C180 C -0.24650 -0.00140 0.36695
 C181 C -0.29321 0.01305 0.35847
 C182 C -0.33218 0.01236 0.37788
 C183 C -0.20486 -0.00020 0.34652
 C184 C -0.21095 -0.01552 0.31821
 C185 C -0.17143 -0.01503 0.29918
 C186 C -0.12543 0.00086 0.30817
 C187 C -0.11911 0.01652 0.33620
 C188 C -0.15852 0.01602 0.35526
 C189 C -0.08447 0.00065 0.28883
 C190 C -0.04963 0.00044 0.27303
 H191 H -0.27283 -0.02956 0.43620
 H192 H -0.20445 -0.02892 0.40225
 H193 H -0.29942 0.02564 0.33697
 H194 H -0.36781 0.02397 0.37105
 H195 H -0.24604 -0.02868 0.31093
 H196 H -0.17669 -0.02735 0.27753
 H197 H -0.08369 0.02904 0.34336
 H198 H -0.15282 0.02873 0.37677
 C199 C 0.40200 -0.00078 0.44067
 C200 C 0.37063 -0.00055 0.42289
 C201 C 0.33264 -0.00026 0.40201
 C202 C 0.31784 0.04375 0.39002
 C203 C 0.27983 0.04426 0.37042
 C204 C 0.25608 0.00068 0.36257
 C205 C 0.27157 -0.04343 0.37454
 C206 C 0.30958 -0.04385 0.39414
 C207 C 0.21466 0.00131 0.34245
 C208 C 0.20953 -0.03512 0.32165
 C209 C 0.16980 -0.03509 0.30322
 C210 C 0.13475 0.00131 0.30534
 C211 C 0.13972 0.03789 0.32581
 C212 C 0.17939 0.03794 0.34424
 C213 C 0.09312 0.00071 0.28694
 C214 C 0.05780 0.00037 0.27191
 H215 H 0.33549 0.07770 0.39594
 H216 H 0.26917 0.07872 0.36132
 H217 H 0.25360 -0.07749 0.36924
 H218 H 0.32062 -0.07811 0.40339
 H219 H 0.23638 -0.06345 0.31952
 H220 H 0.16632 -0.06355 0.28742
 H221 H 0.11267 0.06611 0.32770
 H222 H 0.18193 0.06609 0.36026
   
