data_POSCAR
  _audit_creation_date              2014-09-24
  _audit_creation_method            'ToBaCCo'
  _symmetry_space_group_name_H-M    'P1'
  _symmetry_Int_Tables_number       1
  _symmetry_cell_setting            triclinic
  loop_
  _symmetry_equiv_pos_as_xyz
 x,y,z
_cell_length_a 54.8659
_cell_length_b 55.8309
_cell_length_c 53.9649
_cell_angle_alpha 89.672200
_cell_angle_beta 90.082500
_cell_angle_gamma 90.088800
loop_
  _atom_site_label
  _atom_site_type_symbol
  _atom_site_fract_x
  _atom_site_fract_y
  _atom_site_fract_z
C1 C 0.28688 0.28329 0.23904
 H2 H 0.28782 0.28509 0.25897
 C3 C 0.30177 0.29740 0.22390
 H4 H 0.31385 0.31033 0.23239
 C5 C 0.26955 0.26445 0.20393
 H6 H 0.25724 0.25132 0.19624
 C7 C 0.28425 0.27806 0.18810
 H8 H 0.28309 0.27514 0.16832
 N9 N 0.27092 0.26747 0.22889
 C10 C 0.21586 0.25850 0.28653
 H11 H 0.21593 0.23923 0.28875
 C12 C 0.20044 0.27247 0.30107
 H13 H 0.18899 0.26378 0.31475
 C14 C 0.23103 0.29311 0.26615
 H15 H 0.24259 0.30109 0.25218
 C16 C 0.21580 0.30774 0.28016
 H17 H 0.21588 0.32687 0.27674
 Zn18 Zn 0.25153 0.24894 0.25074
 N19 N 0.23108 0.26899 0.26982
 C20 C 0.27261 0.23362 0.29648
 N21 N 0.27309 0.23135 0.27140
 C22 C 0.28956 0.21686 0.26015
 C23 C 0.30576 0.20316 0.27426
 C24 C 0.28854 0.22031 0.31131
 C25 C 0.21342 0.23817 0.21831
 C26 C 0.19765 0.22384 0.20446
 C27 C 0.21830 0.18883 0.22050
 C28 C 0.23352 0.20382 0.23423
 N29 N 0.23108 0.22802 0.23261
 H30 H 0.25990 0.24572 0.30510
 H31 H 0.28993 0.21581 0.24014
 H32 H 0.31867 0.19167 0.26495
 H33 H 0.28751 0.22194 0.33126
 H34 H 0.21171 0.25746 0.21758
 H35 H 0.18394 0.23223 0.19288
 H36 H 0.22048 0.16960 0.22197
 H37 H 0.24720 0.19603 0.24618
 C38 C 0.20036 0.29749 0.29808
 C39 C 0.30057 0.29493 0.19802
 C40 C 0.20013 0.19884 0.20532
 C41 C 0.30525 0.20465 0.30022
 C42 C 0.78520 0.78073 0.23995
 H43 H 0.78834 0.77942 0.25967
 C44 C 0.80048 0.79512 0.22551
 H45 H 0.81409 0.80557 0.23509
 C46 C 0.76341 0.76847 0.20445
 H47 H 0.74943 0.75758 0.19609
 C48 C 0.77829 0.78254 0.18924
 H49 H 0.77532 0.78147 0.16948
 N50 N 0.76676 0.76811 0.22940
 C51 C 0.70239 0.76414 0.27194
 H52 H 0.69435 0.74970 0.26151
 C53 C 0.68746 0.77834 0.28675
 H54 H 0.66802 0.77500 0.28692
 C55 C 0.73729 0.78584 0.28462
 H56 H 0.75674 0.78849 0.28418
 C57 C 0.72305 0.80041 0.29974
 H58 H 0.73185 0.81409 0.31074
 Zn59 Zn 0.74683 0.74870 0.25030
 N60 N 0.72683 0.76826 0.27083
 C61 C 0.76448 0.72903 0.29536
 N62 N 0.76770 0.72994 0.27039
 C63 C 0.78602 0.71769 0.25924
 C64 C 0.80191 0.70361 0.27332
 C65 C 0.78005 0.71529 0.31016
 C66 C 0.70959 0.73847 0.21574
 C67 C 0.69445 0.72414 0.20120
 C68 C 0.71477 0.68918 0.21771
 C69 C 0.72940 0.70418 0.23208
 N70 N 0.72673 0.72837 0.23074
 H71 H 0.74972 0.73881 0.30382
 H72 H 0.78823 0.71887 0.23935
 H73 H 0.81649 0.69409 0.26415
 H74 H 0.77704 0.71452 0.32998
 H75 H 0.70759 0.75774 0.21520
 H76 H 0.68070 0.73260 0.18974
 H77 H 0.71761 0.67001 0.21870
 H78 H 0.74292 0.69641 0.24425
 C79 C 0.69773 0.79685 0.30084
 C80 C 0.79725 0.79648 0.19955
 C81 C 0.69698 0.69911 0.20197
 C82 C 0.79902 0.70229 0.29914
 C83 C 0.78744 0.28345 0.73929
 H84 H 0.78832 0.28535 0.75921
 C85 C 0.80236 0.29749 0.72413
 H86 H 0.81440 0.31047 0.73260
 C87 C 0.77021 0.26444 0.70424
 H88 H 0.75793 0.25127 0.69658
 C89 C 0.78494 0.27799 0.68838
 H90 H 0.78383 0.27499 0.66861
 N91 N 0.77151 0.26758 0.72918
 C92 C 0.71685 0.25904 0.78722
 H93 H 0.71706 0.23979 0.78964
 C94 C 0.70147 0.27306 0.80175
 H95 H 0.69018 0.26444 0.81561
 C96 C 0.73164 0.29354 0.76634
 H97 H 0.74303 0.30144 0.75218
 C98 C 0.71645 0.30822 0.78035
 H99 H 0.71639 0.32732 0.77674
 Zn100 Zn 0.75204 0.24923 0.75112
 N101 N 0.73183 0.26945 0.77023
 C102 C 0.77398 0.23491 0.79666
 N103 N 0.77354 0.23158 0.77178
 C104 C 0.78913 0.21611 0.76078
 C105 C 0.80516 0.20231 0.77498
 C106 C 0.78992 0.22176 0.81163
 C107 C 0.71396 0.23888 0.71858
 C108 C 0.69802 0.22479 0.70467
 C109 C 0.71771 0.18948 0.72121
 C110 C 0.73314 0.20425 0.73496
 N111 N 0.73128 0.22849 0.73310
 H112 H 0.76189 0.24774 0.80508
 H113 H 0.78904 0.21443 0.74081
 H114 H 0.81758 0.19090 0.76498
 H115 H 0.78840 0.22438 0.83138
 H116 H 0.71259 0.25820 0.71779
 H117 H 0.68424 0.23349 0.69343
 H118 H 0.71999 0.17026 0.72247
 H119 H 0.74658 0.19626 0.74703
 C120 C 0.70120 0.29805 0.79848
 C121 C 0.80122 0.29492 0.69826
 C122 C 0.69989 0.19970 0.70570
 C123 C 0.80588 0.20462 0.80113
 C124 C 0.28438 0.78292 0.74034
 H125 H 0.28704 0.78237 0.76014
 C126 C 0.29953 0.79737 0.72581
 H127 H 0.31297 0.80853 0.73486
 C128 C 0.26428 0.76847 0.70459
 H129 H 0.25098 0.75681 0.69621
 C130 C 0.27919 0.78248 0.68934
 H131 H 0.27703 0.78132 0.66944
 N132 N 0.26677 0.76921 0.72967
 C133 C 0.20200 0.76593 0.77113
 H134 H 0.19388 0.75207 0.75996
 C135 C 0.18699 0.78013 0.78586
 H136 H 0.16746 0.77739 0.78524
 C137 C 0.23706 0.78612 0.78581
 H138 H 0.25659 0.78807 0.78633
 C139 C 0.22275 0.80066 0.80088
 H140 H 0.23156 0.81370 0.81268
 Zn141 Zn 0.24676 0.74980 0.75055
 N142 N 0.22659 0.76932 0.77102
 C143 C 0.26414 0.72983 0.79563
 N144 N 0.26757 0.73103 0.77070
 C145 C 0.28603 0.71898 0.75956
 C146 C 0.30188 0.70482 0.77361
 C147 C 0.27966 0.71600 0.81041
 C148 C 0.21011 0.73942 0.71535
 C149 C 0.19512 0.72501 0.70074
 C150 C 0.21483 0.69012 0.71816
 C151 C 0.22931 0.70520 0.73260
 N152 N 0.22684 0.72939 0.73087
 H153 H 0.24923 0.73940 0.80407
 H154 H 0.28838 0.72036 0.73970
 H155 H 0.31656 0.69545 0.76445
 H156 H 0.27649 0.71498 0.83018
 H157 H 0.20831 0.75870 0.71446
 H158 H 0.18167 0.73342 0.68888
 H159 H 0.21750 0.67095 0.71949
 H160 H 0.24253 0.69750 0.74515
 C161 C 0.19732 0.79789 0.80093
 C162 C 0.29701 0.79737 0.69990
 C163 C 0.19742 0.69996 0.70194
 C164 C 0.29879 0.70321 0.79939
 C165 C 0.03448 0.03463 0.01355
 H166 H 0.03608 0.03552 -0.00642
 C167 C 0.04880 0.04950 0.02834
 H168 H 0.06171 0.06149 0.01954
 C169 C 0.01587 0.01752 0.04907
 H170 H 0.00272 0.00533 0.05707
 C171 C 0.02968 0.03222 0.06457
 H172 H 0.02689 0.03115 0.08440
 N173 N 0.01871 0.01877 0.02407
 C174 C 0.00898 -0.03614 -0.03234
 H175 H -0.01071 -0.03660 -0.03342
 C176 C 0.02283 -0.05140 -0.04711
 H177 H 0.01366 -0.06340 -0.05977
 C178 C 0.04478 -0.01972 -0.01459
 H179 H 0.05329 -0.00772 -0.00156
 C180 C 0.05933 -0.03459 -0.02909
 H181 H 0.07896 -0.03380 -0.02707
 Zn182 Zn -0.00019 -0.00057 0.00266
 N183 N 0.02008 -0.02049 -0.01673
 C184 C -0.01547 0.02035 -0.04294
 N185 N -0.01845 0.02034 -0.01792
 C186 C -0.03386 0.03599 -0.00678
 C187 C -0.04777 0.05187 -0.02099
 C188 C -0.02881 0.03613 -0.05784
 C189 C -0.01036 -0.03777 0.03591
 C190 C -0.02459 -0.05342 0.05006
 C191 C -0.06065 -0.03444 0.03343
 C192 C -0.04572 -0.01923 0.01949
 N193 N -0.02105 -0.02091 0.02124
 H194 H -0.00267 0.00824 -0.05142
 H195 H -0.03545 0.03600 0.01320
 H196 H -0.06005 0.06413 -0.01184
 H197 H -0.02647 0.03570 -0.07776
 H198 H 0.00931 -0.03901 0.03660
 H199 H -0.01568 -0.06683 0.06144
 H200 H -0.08023 -0.03240 0.03219
 H201 H -0.05393 -0.00614 0.00731
 C202 C 0.04837 -0.05063 -0.04569
 C203 C 0.04655 0.04841 0.05427
 C204 C -0.05013 -0.05179 0.04907
 C205 C -0.04535 0.05201 -0.04688
 C206 C 0.03541 0.53379 0.50837
 H207 H 0.03704 0.53454 0.48840
 C208 C 0.04983 0.54864 0.52308
 H209 H 0.06283 0.56050 0.51422
 C210 C 0.01666 0.51702 0.54399
 H211 H 0.00342 0.50496 0.55205
 C212 C 0.03057 0.53171 0.55941
 H213 H 0.02775 0.53078 0.57924
 N214 N 0.01948 0.51814 0.51898
 C215 C 0.00947 0.46410 0.46171
 H216 H -0.01018 0.46419 0.45999
 C217 C 0.02336 0.44894 0.44688
 H218 H 0.01423 0.43771 0.43346
 C219 C 0.04511 0.47894 0.48116
 H220 H 0.05351 0.49028 0.49490
 C221 C 0.05969 0.46396 0.46683
 H222 H 0.07921 0.46401 0.46976
 Zn223 Zn 0.00036 0.49891 0.49768
 N224 N 0.02049 0.47901 0.47813
 C225 C -0.01583 0.51990 0.45232
 N226 N -0.01815 0.51994 0.47742
 C227 C -0.03325 0.53563 0.48892
 C228 C -0.04755 0.55146 0.47506
 C229 C -0.02968 0.53554 0.43774
 C230 C -0.00938 0.46150 0.53069
 C231 C -0.02340 0.44571 0.54490
 C232 C -0.05970 0.46498 0.52920
 C233 C -0.04498 0.48030 0.51516
 N234 N -0.02029 0.47853 0.51641
 H235 H -0.00323 0.50782 0.44351
 H236 H -0.03430 0.53569 0.50894
 H237 H -0.05955 0.56374 0.48454
 H238 H -0.02795 0.53493 0.41776
 H239 H 0.01029 0.46022 0.53101
 H240 H -0.01430 0.43214 0.55592
 H241 H -0.07929 0.46711 0.52837
 H242 H -0.05338 0.49356 0.50329
 C243 C 0.04887 0.44880 0.44925
 C244 C 0.04754 0.54775 0.54901
 C245 C -0.04895 0.44741 0.54441
 C246 C -0.04596 0.55143 0.44909
 C247 C 0.53589 0.03483 0.51298
 H248 H 0.53724 0.03593 0.49301
 C249 C 0.55024 0.04971 0.52775
 H250 H 0.56294 0.06189 0.51892
 C251 C 0.51783 0.01727 0.54857
 H252 H 0.50490 0.00487 0.55660
 C253 C 0.53167 0.03196 0.56404
 H254 H 0.52909 0.03070 0.58389
 N255 N 0.52035 0.01878 0.52354
 C256 C 0.50992 -0.03682 0.46796
 H257 H 0.49022 -0.03756 0.46735
 C258 C 0.52364 -0.05224 0.45325
 H259 H 0.51437 -0.06465 0.44109
 C260 C 0.54589 -0.01958 0.48448
 H261 H 0.55454 -0.00718 0.49701
 C262 C 0.56031 -0.03458 0.47000
 H263 H 0.57996 -0.03348 0.47152
 Zn264 Zn 0.50117 -0.00046 0.50230
 N265 N 0.52116 -0.02068 0.48293
 C266 C 0.48459 0.01934 0.45659
 N267 N 0.48297 0.02051 0.48171
 C268 C 0.46891 0.03731 0.49289
 C269 C 0.45514 0.05332 0.47871
 C270 C 0.47119 0.03506 0.44170
 C271 C 0.49062 -0.03810 0.53489
 C272 C 0.47623 -0.05360 0.54904
 C273 C 0.44049 -0.03251 0.53456
 C274 C 0.45557 -0.01755 0.52050
 N275 N 0.48017 -0.02039 0.52115
 H276 H 0.49628 0.00625 0.44802
 H277 H 0.46836 0.03818 0.51291
 H278 H 0.44408 0.06659 0.48796
 H279 H 0.47237 0.03356 0.42174
 H280 H 0.51023 -0.04018 0.53476
 H281 H 0.48495 -0.06777 0.55955
 H282 H 0.42101 -0.02951 0.53423
 H283 H 0.44752 -0.00368 0.50915
 C284 C 0.54920 -0.05110 0.45403
 C285 C 0.54826 0.04840 0.55369
 C286 C 0.45076 -0.05085 0.54914
 C287 C 0.45610 0.05225 0.45274
 C288 C 0.53451 0.53381 0.00815
 H289 H 0.53610 0.53470 -0.01182
 C290 C 0.54887 0.54865 0.02294
 H291 H 0.56178 0.56064 0.01414
 C292 C 0.51591 0.51671 0.04368
 H293 H 0.50275 0.50452 0.05168
 C294 C 0.52976 0.53137 0.05918
 H295 H 0.52700 0.53029 0.07901
 N296 N 0.51869 0.51801 0.01868
 C297 C 0.50906 0.46410 -0.03879
 H298 H 0.48941 0.46409 -0.04056
 C299 C 0.52307 0.44904 -0.05362
 H300 H 0.51404 0.43778 -0.06707
 C301 C 0.54457 0.47911 -0.01923
 H302 H 0.55287 0.49046 -0.00545
 C303 C 0.55927 0.46424 -0.03356
 H304 H 0.57879 0.46440 -0.03060
 Zn305 Zn 0.49969 0.49878 -0.00273
 N306 N 0.51996 0.47904 -0.02232
 C307 C 0.48351 0.51987 -0.04806
 N308 N 0.48115 0.51982 -0.02296
 C309 C 0.46600 0.53544 -0.01142
 C310 C 0.45170 0.55129 -0.02525
 C311 C 0.46967 0.53554 -0.06260
 C312 C 0.49000 0.46121 0.03011
 C313 C 0.47601 0.44539 0.04430
 C314 C 0.43968 0.46467 0.02867
 C315 C 0.45438 0.48002 0.01464
 N316 N 0.47907 0.47827 0.01588
 H317 H 0.49615 0.50784 -0.05689
 H318 H 0.46491 0.53542 0.00860
 H319 H 0.43966 0.56353 -0.01574
 H320 H 0.47144 0.53503 -0.08257
 H321 H 0.50967 0.45995 0.03042
 H322 H 0.48512 0.43181 0.05529
 H323 H 0.42009 0.46679 0.02787
 H324 H 0.44597 0.49330 0.00282
 C325 C 0.54858 0.44905 -0.05119
 C326 C 0.54663 0.54756 0.04886
 C327 C 0.45045 0.44708 0.04385
 C328 C 0.45334 0.55137 -0.05121
 C329 C 0.15211 -0.15718 -0.15341
 C330 C 0.17260 -0.14768 -0.16563
 C331 C 0.18721 -0.16223 -0.18043
 C332 C 0.18172 -0.18666 -0.18334
 C333 C 0.16125 -0.19618 -0.17110
 C334 C 0.14661 -0.18160 -0.15632
 C335 C 0.13659 -0.14166 -0.13767
 C336 C 0.12701 -0.15032 -0.11517
 C337 C 0.11256 -0.13566 -0.10031
 C338 C 0.10743 -0.11198 -0.10755
 C339 C 0.11694 -0.10333 -0.13005
 C340 C 0.13132 -0.11801 -0.14496
 C341 C 0.09230 -0.09631 -0.09166
 C342 C 0.09887 -0.07226 -0.08792
 C343 C 0.08467 -0.05749 -0.07294
 C344 C 0.06351 -0.06640 -0.06146
 C345 C 0.05692 -0.09044 -0.06523
 C346 C 0.07120 -0.10526 -0.08011
 H347 H 0.17752 -0.12901 -0.16354
 H348 H 0.20268 -0.15428 -0.18982
 H349 H 0.15667 -0.21497 -0.17271
 H350 H 0.13081 -0.18943 -0.14738
 H351 H 0.13105 -0.16832 -0.10883
 H352 H 0.10576 -0.14271 -0.08290
 H353 H 0.11298 -0.08529 -0.13630
 H354 H 0.13805 -0.11093 -0.16237
 H355 H 0.11516 -0.06493 -0.09637
 H356 H 0.09008 -0.03898 -0.07057
 H357 H 0.04084 -0.09787 -0.05645
 H358 H 0.06557 -0.12366 -0.08283
 C359 C 0.15401 0.34217 0.34280
 C360 C 0.17755 0.34980 0.33624
 C361 C 0.19258 0.33527 0.32186
 C362 C 0.18436 0.31284 0.31353
 C363 C 0.16077 0.30523 0.32011
 C364 C 0.14580 0.31971 0.33465
 C365 C 0.13813 0.35763 0.35811
 C366 C 0.12460 0.34788 0.37782
 C367 C 0.11000 0.36257 0.39251
 C368 C 0.10847 0.38731 0.38771
 C369 C 0.12184 0.39698 0.36780
 C370 C 0.13656 0.38232 0.35323
 C371 C 0.09316 0.40302 0.40348
 C372 C 0.10111 0.42617 0.40972
 C373 C 0.08675 0.44098 0.42448
 C374 C 0.06411 0.43299 0.43351
 C375 C 0.05618 0.40981 0.42735
 C376 C 0.07050 0.39503 0.41247
 H377 H 0.18449 0.36686 0.34259
 H378 H 0.21080 0.34149 0.31756
 H379 H 0.15370 0.28825 0.31368
 H380 H 0.12762 0.31352 0.33918
 H381 H 0.12571 0.32896 0.38218
 H382 H 0.10026 0.35460 0.40793
 H383 H 0.12072 0.41586 0.36327
 H384 H 0.14651 0.39025 0.33792
 H385 H 0.11860 0.43279 0.40340
 H386 H 0.09329 0.45883 0.42860
 H387 H 0.03899 0.40296 0.43423
 H388 H 0.06369 0.37741 0.40780
 C389 C 0.65260 -0.15814 0.34652
 C390 C 0.67244 -0.14844 0.33338
 C391 C 0.68703 -0.16302 0.31858
 C392 C 0.68220 -0.18767 0.31662
 C393 C 0.66239 -0.19739 0.32981
 C394 C 0.64776 -0.18279 0.34456
 C395 C 0.63706 -0.14258 0.36221
 C396 C 0.62829 -0.15083 0.38520
 C397 C 0.61382 -0.13612 0.40000
 C398 C 0.60789 -0.11280 0.39221
 C399 C 0.61659 -0.10455 0.36921
 C400 C 0.63096 -0.11929 0.35436
 C401 C 0.59283 -0.09704 0.40806
 C402 C 0.59899 -0.07278 0.41100
 C403 C 0.58488 -0.05793 0.42598
 C404 C 0.56421 -0.06696 0.43823
 C405 C 0.55799 -0.09120 0.43524
 C406 C 0.57220 -0.10611 0.42038
 H407 H 0.67686 -0.12959 0.33471
 H408 H 0.70196 -0.15491 0.30845
 H409 H 0.65834 -0.21635 0.32895
 H410 H 0.63247 -0.19078 0.35422
 H411 H 0.63297 -0.16853 0.39197
 H412 H 0.60766 -0.14284 0.41779
 H413 H 0.61199 -0.08679 0.36255
 H414 H 0.63703 -0.11253 0.33656
 H415 H 0.61492 -0.06535 0.40193
 H416 H 0.58999 -0.03927 0.42774
 H417 H 0.54229 -0.09871 0.44463
 H418 H 0.56689 -0.12467 0.41828
 C419 C 0.65465 0.34277 -0.15707
 C420 C 0.67811 0.35052 -0.16377
 C421 C 0.69320 0.33599 -0.17808
 C422 C 0.68513 0.31342 -0.18617
 C423 C 0.66162 0.30570 -0.17946
 C424 C 0.64658 0.32019 -0.16500
 C425 C 0.63869 0.35822 -0.14182
 C426 C 0.62522 0.34847 -0.12206
 C427 C 0.61049 0.36312 -0.10747
 C428 C 0.60877 0.38783 -0.11241
 C429 C 0.62209 0.39749 -0.13235
 C430 C 0.63694 0.38287 -0.14683
 C431 C 0.59329 0.40349 -0.09676
 C432 C 0.60106 0.42671 -0.09057
 C433 C 0.58655 0.44146 -0.07589
 C434 C 0.56395 0.43332 -0.06689
 C435 C 0.55619 0.41008 -0.07302
 C436 C 0.57066 0.39536 -0.08781
 H437 H 0.68494 0.36769 -0.15759
 H438 H 0.71136 0.34231 -0.18250
 H439 H 0.65466 0.28861 -0.18571
 H440 H 0.62846 0.31389 -0.16037
 H441 H 0.62647 0.32958 -0.11759
 H442 H 0.60079 0.35516 -0.09202
 H443 H 0.62083 0.41635 -0.13697
 H444 H 0.64683 0.39080 -0.16218
 H445 H 0.61851 0.43343 -0.09687
 H446 H 0.59295 0.45936 -0.07179
 H447 H 0.53903 0.40313 -0.06616
 H448 H 0.56400 0.37768 -0.09245
 C449 C -0.14800 0.16171 -0.15416
 C450 C -0.15420 0.15465 -0.17825
 C451 C -0.16916 0.16894 -0.19317
 C452 C -0.17888 0.19088 -0.18446
 C453 C -0.17229 0.19776 -0.16008
 C454 C -0.15709 0.18352 -0.14536
 C455 C -0.13237 0.14623 -0.13819
 C456 C -0.13683 0.14426 -0.11260
 C457 C -0.12242 0.12944 -0.09766
 C458 C -0.10331 0.11602 -0.10794
 C459 C -0.09879 0.11805 -0.13351
 C460 C -0.11306 0.13304 -0.14842
 C461 C -0.08834 0.09979 -0.09212
 C462 C -0.06323 0.09701 -0.09651
 C463 C -0.04929 0.08148 -0.08187
 C464 C -0.06007 0.06857 -0.06235
 C465 C -0.08508 0.07144 -0.05778
 C466 C -0.09908 0.08678 -0.07257
 H467 H -0.14804 0.13764 -0.18544
 H468 H -0.17410 0.16162 -0.21097
 H469 H -0.17765 0.21475 -0.15236
 H470 H -0.15210 0.18987 -0.12712
 H471 H -0.15171 0.15391 -0.10412
 H472 H -0.12621 0.12861 -0.07799
 H473 H -0.08443 0.10778 -0.14213
 H474 H -0.10887 0.13436 -0.16798
 H475 H -0.05425 0.10707 -0.11109
 H476 H -0.02997 0.07981 -0.08558
 H477 H -0.09391 0.06145 -0.04305
 H478 H -0.11843 0.08809 -0.06894
 C479 C -0.15317 0.65866 0.34392
 C480 C -0.16212 0.65021 0.32115
 C481 C -0.17751 0.66441 0.30658
 C482 C -0.18440 0.68735 0.31449
 C483 C -0.17547 0.69584 0.33722
 C484 C -0.15998 0.68169 0.35174
 C485 C -0.13698 0.64346 0.35952
 C486 C -0.13942 0.64316 0.38545
 C487 C -0.12440 0.62865 0.40009
 C488 C -0.10662 0.61401 0.38917
 C489 C -0.10411 0.61438 0.36324
 C490 C -0.11907 0.62896 0.34860
 C491 C -0.09094 0.59824 0.40471
 C492 C -0.06621 0.59491 0.39887
 C493 C -0.05160 0.57979 0.41329
 C494 C -0.06135 0.56774 0.43395
 C495 C -0.08601 0.57117 0.43991
 C496 C -0.10065 0.58619 0.42543
 H497 H -0.15760 0.63241 0.31478
 H498 H -0.18439 0.65726 0.28931
 H499 H -0.18019 0.71358 0.34361
 H500 H -0.15308 0.68891 0.36896
 H501 H -0.15320 0.65389 0.39444
 H502 H -0.12662 0.62902 0.42002
 H503 H -0.09079 0.60313 0.35420
 H504 H -0.11650 0.62898 0.32872
 H505 H -0.05805 0.60423 0.38330
 H506 H -0.03257 0.57774 0.40845
 H507 H -0.09411 0.56184 0.45551
 H508 H -0.11972 0.58801 0.43020
 C509 C 0.35269 0.16102 0.34544
 C510 C 0.34150 0.15153 0.32419
 C511 C 0.32628 0.16574 0.30945
 C512 C 0.32184 0.18975 0.31564
 C513 C 0.33311 0.19929 0.33681
 C514 C 0.34838 0.18510 0.35154
 C515 C 0.36854 0.14576 0.36132
 C516 C 0.36746 0.14740 0.38727
 C517 C 0.38199 0.13268 0.40222
 C518 C 0.39793 0.11598 0.39156
 C519 C 0.39915 0.11448 0.36559
 C520 C 0.38463 0.12920 0.35065
 C521 C 0.41300 0.09997 0.40744
 C522 C 0.43717 0.09459 0.40092
 C523 C 0.45119 0.07920 0.41566
 C524 C 0.44136 0.06888 0.43726
 C525 C 0.41725 0.07437 0.44386
 C526 C 0.40322 0.08972 0.42911
 H527 H 0.34411 0.13295 0.31922
 H528 H 0.31756 0.15777 0.29348
 H529 H 0.33033 0.21784 0.34185
 H530 H 0.35703 0.19305 0.36756
 H531 H 0.35508 0.15980 0.39607
 H532 H 0.38083 0.13447 0.42215
 H533 H 0.41106 0.10163 0.35680
 H534 H 0.38610 0.12769 0.33072
 H535 H 0.44537 0.10251 0.38457
 H536 H 0.46983 0.07560 0.41030
 H537 H 0.40905 0.06641 0.46019
 H538 H 0.38454 0.09317 0.43442
 C539 C 0.34641 0.65926 -0.15597
 C540 C 0.33763 0.65100 -0.17889
 C541 C 0.32230 0.66532 -0.19342
 C542 C 0.31529 0.68815 -0.18531
 C543 C 0.32405 0.69644 -0.16243
 C544 C 0.33949 0.68218 -0.14796
 C545 C 0.36256 0.64394 -0.14044
 C546 C 0.35999 0.64340 -0.11452
 C547 C 0.37496 0.62879 -0.09994
 C548 C 0.39282 0.61428 -0.11091
 C549 C 0.39546 0.61488 -0.13682
 C550 C 0.38054 0.62956 -0.15140
 C551 C 0.40846 0.59840 -0.09543
 C552 C 0.43322 0.59514 -0.10121
 C553 C 0.44779 0.57993 -0.08685
 C554 C 0.43798 0.56774 -0.06631
 C555 C 0.41330 0.57110 -0.06042
 C556 C 0.39869 0.58620 -0.07484
 H557 H 0.34224 0.63328 -0.18542
 H558 H 0.31555 0.65833 -0.21080
 H559 H 0.31923 0.71410 -0.15588
 H560 H 0.34625 0.68925 -0.13061
 H561 H 0.34614 0.65403 -0.10550
 H562 H 0.37265 0.62899 -0.08002
 H563 H 0.40883 0.60374 -0.14590
 H564 H 0.38322 0.62977 -0.17127
 H565 H 0.44142 0.60458 -0.11667
 H566 H 0.46685 0.57794 -0.09162
 H567 H 0.40515 0.56165 -0.04492
 H568 H 0.37960 0.58795 -0.07013
 C569 C -0.15710 -0.15935 0.15416
 C570 C -0.18029 -0.16637 0.14594
 C571 C -0.19523 -0.18079 0.16075
 C572 C -0.18747 -0.18885 0.18438
 C573 C -0.16400 -0.18171 0.19238
 C574 C -0.14915 -0.16721 0.17754
 C575 C -0.14130 -0.14382 0.13845
 C576 C -0.11597 -0.14755 0.13753
 C577 C -0.10112 -0.13281 0.12294
 C578 C -0.11126 -0.11411 0.10882
 C579 C -0.13657 -0.11043 0.10960
 C580 C -0.15141 -0.12506 0.12431
 C581 C -0.09550 -0.09839 0.09342
 C582 C -0.10258 -0.09187 0.06929
 C583 C -0.08781 -0.07692 0.05484
 C584 C -0.06568 -0.06802 0.06427
 C585 C -0.05862 -0.07460 0.08843
 C586 C -0.07332 -0.08967 0.10280
 H587 H -0.18693 -0.16077 0.12791
 H588 H -0.21324 -0.18471 0.15371
 H589 H -0.15636 -0.18786 0.20974
 H590 H -0.13143 -0.16200 0.18455
 H591 H -0.10764 -0.16209 0.14783
 H592 H -0.08170 -0.13626 0.12243
 H593 H -0.14484 -0.09593 0.09917
 H594 H -0.17077 -0.12141 0.12492
 H595 H -0.11942 -0.09861 0.06146
 H596 H -0.09359 -0.07258 0.03617
 H597 H -0.04192 -0.06774 0.09643
 H598 H -0.06757 -0.09415 0.12147
 C599 C -0.15364 0.33876 0.65065
 C600 C -0.17750 0.33259 0.64354
 C601 C -0.19209 0.31836 0.65892
 C602 C -0.18314 0.30981 0.68174
 C603 C -0.15921 0.31579 0.68874
 C604 C -0.14468 0.33015 0.67343
 C605 C -0.13826 0.35429 0.63451
 C606 C -0.11306 0.35018 0.63241
 C607 C -0.09854 0.36506 0.61763
 C608 C -0.10892 0.38426 0.60443
 C609 C -0.13411 0.38827 0.60630
 C610 C -0.14860 0.37352 0.62124
 C611 C -0.09349 0.40020 0.58896
 C612 C -0.10117 0.40727 0.56519
 C613 C -0.08667 0.42242 0.55067
 C614 C -0.06425 0.43101 0.55970
 C615 C -0.05663 0.42391 0.58353
 C616 C -0.07103 0.40860 0.59794
 H617 H -0.18488 0.33864 0.62598
 H618 H -0.21052 0.31435 0.65306
 H619 H -0.15160 0.30925 0.70601
 H620 H -0.12652 0.33478 0.67965
 H621 H -0.10456 0.33528 0.64199
 H622 H -0.07922 0.36137 0.61625
 H623 H -0.14253 0.40314 0.59658
 H624 H -0.16785 0.37748 0.62277
 H625 H -0.11826 0.40080 0.55769
 H626 H -0.09291 0.42715 0.53225
 H627 H -0.03970 0.43052 0.59125
 H628 H -0.06483 0.40370 0.61634
 C629 C 0.34320 -0.15812 0.65395
 C630 C 0.31872 -0.16220 0.64747
 C631 C 0.30377 -0.17656 0.66236
 C632 C 0.31297 -0.18739 0.68402
 C633 C 0.33751 -0.18346 0.69040
 C634 C 0.35239 -0.16893 0.67563
 C635 C 0.35905 -0.14259 0.63826
 C636 C 0.38385 -0.14807 0.63496
 C637 C 0.39878 -0.13331 0.62047
 C638 C 0.38919 -0.11289 0.60873
 C639 C 0.36441 -0.10745 0.61182
 C640 C 0.34953 -0.12206 0.62653
 C641 C 0.40502 -0.09722 0.59339
 C642 C 0.39707 -0.08898 0.57012
 C643 C 0.41196 -0.07414 0.55569
 C644 C 0.43504 -0.06696 0.56433
 C645 C 0.44292 -0.07522 0.58769
 C646 C 0.42812 -0.09028 0.60199
 H647 H 0.31110 -0.15446 0.63074
 H648 H 0.28490 -0.17892 0.65702
 H649 H 0.34534 -0.19178 0.70673
 H650 H 0.37105 -0.16596 0.68139
 H651 H 0.39170 -0.16396 0.64331
 H652 H 0.41776 -0.13806 0.61812
 H653 H 0.35665 -0.09163 0.60323
 H654 H 0.33066 -0.11701 0.62902
 H655 H 0.37945 -0.09433 0.56294
 H656 H 0.40548 -0.06854 0.53762
 H657 H 0.46036 -0.06973 0.59515
 H658 H 0.43455 -0.09614 0.62001
 C659 C 0.34571 0.33878 0.15041
 C660 C 0.32182 0.33269 0.14335
 C661 C 0.30723 0.31847 0.15874
 C662 C 0.31619 0.30985 0.18152
 C663 C 0.34016 0.31577 0.18848
 C664 C 0.35469 0.33012 0.17317
 C665 C 0.36111 0.35426 0.13425
 C666 C 0.38630 0.35006 0.13209
 C667 C 0.40083 0.36488 0.11725
 C668 C 0.39048 0.38410 0.10406
 C669 C 0.36531 0.38820 0.10599
 C670 C 0.35081 0.37352 0.12099
 C671 C 0.40593 0.39997 0.08852
 C672 C 0.39822 0.40703 0.06476
 C673 C 0.41271 0.42213 0.05020
 C674 C 0.43517 0.43069 0.05916
 C675 C 0.44283 0.42359 0.08298
 C676 C 0.42843 0.40833 0.09744
 H677 H 0.31442 0.33878 0.12581
 H678 H 0.28877 0.31452 0.15291
 H679 H 0.34779 0.30918 0.20572
 H680 H 0.37288 0.33469 0.17936
 H681 H 0.39477 0.33515 0.14166
 H682 H 0.42013 0.36113 0.11583
 H683 H 0.35693 0.40309 0.09627
 H684 H 0.33158 0.37754 0.12255
 H685 H 0.38110 0.40059 0.05731
 H686 H 0.40645 0.42686 0.03178
 H687 H 0.45979 0.43018 0.09067
 H688 H 0.43465 0.40343 0.11584
 C689 C 0.15320 0.15372 0.16161
 C690 C 0.17843 0.14941 0.16276
 C691 C 0.19360 0.16395 0.17708
 C692 C 0.18394 0.18327 0.19039
 C693 C 0.15877 0.18767 0.18923
 C694 C 0.14355 0.17300 0.17509
 C695 C 0.13707 0.13825 0.14631
 C696 C 0.11734 0.14812 0.13311
 C697 C 0.10233 0.13362 0.11857
 C698 C 0.10676 0.10889 0.11669
 C699 C 0.12647 0.09902 0.12991
 C700 C 0.14137 0.11349 0.14460
 C701 C 0.09105 0.09351 0.10087
 C702 C 0.08510 0.07003 0.10828
 C703 C 0.07069 0.05545 0.09321
 C704 C 0.06170 0.06402 0.07042
 C705 C 0.06747 0.08757 0.06311
 C706 C 0.08203 0.10209 0.07809
 H707 H 0.18656 0.13504 0.15226
 H708 H 0.21300 0.16037 0.17738
 H709 H 0.15081 0.20226 0.19957
 H710 H 0.12416 0.17658 0.17500
 H711 H 0.11365 0.16715 0.13374
 H712 H 0.08713 0.14178 0.10892
 H713 H 0.13063 0.08012 0.12866
 H714 H 0.15618 0.10521 0.15477
 H715 H 0.09144 0.06294 0.12585
 H716 H 0.06687 0.03732 0.09930
 H717 H 0.06060 0.09489 0.04586
 H718 H 0.08649 0.11996 0.07163
 C719 C 0.15206 0.65440 0.65681
 C720 C 0.16046 0.67648 0.64760
 C721 C 0.17524 0.69119 0.66217
 C722 C 0.18177 0.68424 0.68639
 C723 C 0.17322 0.66215 0.69560
 C724 C 0.15863 0.64736 0.68093
 C725 C 0.13652 0.63875 0.64128
 C726 C 0.14109 0.61405 0.63995
 C727 C 0.12662 0.59934 0.62508
 C728 C 0.10708 0.60896 0.61138
 C729 C 0.10243 0.63368 0.61290
 C730 C 0.11706 0.64842 0.62759
 C731 C 0.09170 0.59331 0.59548
 C732 C 0.08287 0.60165 0.57253
 C733 C 0.06847 0.58696 0.55757
 C734 C 0.06267 0.56347 0.56507
 C735 C 0.07152 0.55512 0.58801
 C736 C 0.08577 0.56988 0.60305
 H737 H 0.15594 0.68219 0.62895
 H738 H 0.18185 0.70784 0.65429
 H739 H 0.17749 0.65643 0.71430
 H740 H 0.15213 0.63055 0.68859
 H741 H 0.15618 0.60619 0.65007
 H742 H 0.13101 0.58048 0.62401
 H743 H 0.08727 0.64164 0.60299
 H744 H 0.11293 0.66735 0.62855
 H745 H 0.08732 0.61947 0.56594
 H746 H 0.06170 0.59412 0.54020
 H747 H 0.06768 0.53705 0.59425
 H748 H 0.09197 0.56296 0.62075
 C749 C 0.65295 0.15481 0.66154
 C750 C 0.66118 0.17694 0.65231
 C751 C 0.67637 0.19148 0.66661
 C752 C 0.68350 0.18432 0.69059
 C753 C 0.67501 0.16223 0.69988
 C754 C 0.66002 0.14759 0.68546
 C755 C 0.63723 0.13919 0.64616
 C756 C 0.64201 0.11456 0.64447
 C757 C 0.62746 0.09989 0.62962
 C758 C 0.60766 0.10950 0.61631
 C759 C 0.60279 0.13415 0.61823
 C760 C 0.61749 0.14885 0.63289
 C761 C 0.59226 0.09390 0.60037
 C762 C 0.58308 0.10245 0.57765
 C763 C 0.56872 0.08778 0.56262
 C764 C 0.56333 0.06411 0.56982
 C765 C 0.57253 0.05556 0.59254
 C766 C 0.58673 0.07029 0.60766
 H767 H 0.65626 0.18278 0.63380
 H768 H 0.68290 0.20814 0.65867
 H769 H 0.67973 0.15634 0.71841
 H770 H 0.65366 0.13075 0.69314
 H771 H 0.65732 0.10672 0.65425
 H772 H 0.63203 0.08109 0.62823
 H773 H 0.58744 0.14208 0.60863
 H774 H 0.61323 0.16774 0.63413
 H775 H 0.58722 0.12042 0.57128
 H776 H 0.56166 0.09510 0.54544
 H777 H 0.56902 0.03735 0.59854
 H778 H 0.59321 0.06321 0.62517
 C779 C 0.65129 0.65379 0.15694
 C780 C 0.65938 0.67605 0.14791
 C781 C 0.67425 0.69069 0.16245
 C782 C 0.68119 0.68348 0.18647
 C783 C 0.67295 0.66122 0.19551
 C784 C 0.65826 0.64650 0.18087
 C785 C 0.63568 0.63820 0.14141
 C786 C 0.64040 0.61355 0.13975
 C787 C 0.62588 0.59889 0.12487
 C788 C 0.60614 0.60853 0.11147
 C789 C 0.60134 0.63320 0.11333
 C790 C 0.61601 0.64788 0.12804
 C791 C 0.59074 0.59296 0.09553
 C792 C 0.58173 0.60146 0.07272
 C793 C 0.56733 0.58683 0.05770
 C794 C 0.56172 0.56324 0.06500
 C795 C 0.57074 0.55473 0.08781
 C796 C 0.58499 0.56943 0.10291
 H797 H 0.65455 0.68196 0.12939
 H798 H 0.68062 0.70749 0.15470
 H799 H 0.67756 0.65529 0.21406
 H800 H 0.65201 0.62955 0.18840
 H801 H 0.65565 0.60568 0.14962
 H802 H 0.63038 0.58008 0.12353
 H803 H 0.58604 0.64115 0.10365
 H804 H 0.61177 0.66677 0.12926
 H805 H 0.58604 0.61937 0.06629
 H806 H 0.56043 0.59410 0.04043
 H807 H 0.56704 0.53658 0.09389
 H808 H 0.59135 0.56239 0.12050
   
