data_POSCAR
  _audit_creation_date              2014-09-24
  _audit_creation_method            'ToBaCCo'
  _symmetry_space_group_name_H-M    'P1'
  _symmetry_Int_Tables_number       1
  _symmetry_cell_setting            triclinic
  loop_
  _symmetry_equiv_pos_as_xyz
 x,y,z
_cell_length_a 33.4236
_cell_length_b 32.9069
_cell_length_c 32.4844
_cell_angle_alpha 90.125900
_cell_angle_beta 89.619700
_cell_angle_gamma 90.185800
loop_
  _atom_site_label
  _atom_site_type_symbol
  _atom_site_fract_x
  _atom_site_fract_y
  _atom_site_fract_z
O1 O 0.33419 0.38499 0.03405
 O2 O 0.37172 0.32462 -0.05358
 O3 O 0.32732 0.38779 -0.04726
 O4 O 0.39158 0.32988 0.02055
 O5 O 0.34219 0.28714 0.03467
 O6 O 0.27716 0.34517 -0.03647
 O7 O 0.32329 0.28000 -0.04301
 O8 O 0.28492 0.34097 0.04277
 Cu9 Cu 0.36018 0.36166 -0.01158
 Cu10 Cu 0.30211 0.30888 0.00037
 C11 C 0.30252 0.37361 0.05275
 C12 C 0.35448 0.29112 -0.06225
 C13 C 0.29145 0.37714 -0.05339
 C14 C 0.37852 0.29852 0.03864
 O15 O 0.68650 0.62813 0.03728
 O16 O 0.63958 0.69294 -0.03975
 O17 O 0.69667 0.63669 -0.04076
 O18 O 0.63450 0.68387 0.03993
 O19 O 0.68008 0.73200 0.04836
 O20 O 0.74304 0.68366 -0.03183
 O21 O 0.68600 0.73991 -0.03090
 O22 O 0.73363 0.67436 0.04721
 Cu23 Cu 0.65952 0.65599 -0.00258
 Cu24 Cu 0.71542 0.71224 0.00877
 C25 C 0.71774 0.64011 0.05555
 C26 C 0.65375 0.72792 -0.04758
 C27 C 0.73126 0.65100 -0.04885
 C28 C 0.64691 0.71561 0.05813
 O29 O 0.61709 0.32527 1.03650
 O30 O 0.67728 0.38175 0.96321
 O31 O 0.62345 0.33044 0.95962
 O32 O 0.68519 0.37159 1.04378
 O33 O 0.72590 0.31926 1.03866
 O34 O 0.66388 0.27754 0.95542
 O35 O 0.72110 0.33163 0.95934
 O36 O 0.65963 0.27400 1.03541
 Cu37 Cu 0.64763 0.35771 1.00333
 Cu38 Cu 0.69688 0.29549 0.99713
 C39 C 0.62660 0.28969 1.04708
 C40 C 0.70877 0.36651 0.94808
 C41 C 0.63345 0.29688 0.94306
 C42 C 0.71717 0.35340 1.05426
 O43 O 0.32825 0.61118 0.95234
 O44 O 0.39282 0.67138 1.02002
 O45 O 0.33873 0.61409 1.03154
 O46 O 0.38315 0.66593 0.94239
 O47 O 0.33910 0.71551 0.94891
 O48 O 0.28965 0.65878 1.03362
 O49 O 0.34458 0.71648 1.02861
 O50 O 0.28244 0.65940 0.95441
 Cu51 Cu 0.36522 0.63576 0.98642
 Cu52 Cu 0.30920 0.69235 0.99185
 C53 C 0.29447 0.62496 0.94171
 C54 C 0.37999 0.70437 1.03529
 C55 C 0.30579 0.62633 1.04667
 C56 C 0.36993 0.70032 0.93163
 O57 O -0.04707 0.38099 0.32870
 O58 O 0.03619 0.33321 0.38264
 O59 O 0.03012 0.38999 0.32741
 O60 O -0.04129 0.32640 0.38437
 O61 O -0.03631 0.27783 0.33763
 O62 O 0.03407 0.34390 0.27808
 O63 O 0.04071 0.28620 0.33420
 O64 O -0.04404 0.33406 0.28005
 Cu65 Cu -0.00573 0.36230 0.36052
 Cu66 Cu -0.00099 0.30587 0.30240
 C67 C -0.05982 0.36585 0.29536
 C68 C 0.05216 0.30124 0.36823
 C69 C 0.04395 0.37834 0.29294
 C70 C -0.05064 0.29126 0.37145
 O71 O 0.03266 0.66709 0.60885
 O72 O -0.04812 0.61295 0.66231
 O73 O -0.04448 0.66814 0.60585
 O74 O 0.02952 0.61100 0.66490
 O75 O 0.02876 0.65778 0.71376
 O76 O -0.04538 0.71609 0.65351
 O77 O -0.04911 0.65995 0.71098
 O78 O 0.03199 0.71478 0.65683
 Cu79 Cu -0.00748 0.63501 0.63078
 Cu80 Cu -0.00851 0.69191 0.68874
 C81 C 0.04552 0.70051 0.62315
 C82 C -0.06212 0.62686 0.69584
 C83 C -0.05703 0.70213 0.61901
 C84 C 0.04148 0.62416 0.69943
 O85 O 1.03781 0.61756 0.32454
 O86 O 0.96068 0.67569 0.37791
 O87 O 0.96210 0.62696 0.31397
 O88 O 1.03817 0.67187 0.38202
 O89 O 1.04689 0.72205 0.33783
 O90 O 0.96951 0.67817 0.27079
 O91 O 0.96948 0.72731 0.33542
 O92 O 1.04576 0.66695 0.27917
 Cu93 Cu 0.99863 0.64316 0.35401
 Cu94 Cu 1.00866 0.70372 0.30139
 C95 C 1.05438 0.63168 0.29250
 C96 C 0.95261 0.71156 0.36686
 C97 C 0.95354 0.64445 0.28025
 C98 C 1.05539 0.70482 0.37159
 O99 O 1.04159 0.35233 0.70324
 O100 O 0.96681 0.30493 0.63789
 O101 O 0.96480 0.35402 0.70114
 O102 O 1.04345 0.29797 0.64532
 O103 O 1.03964 0.24818 0.69062
 O104 O 0.95859 0.30272 0.74442
 O105 O 0.96356 0.25236 0.68001
 O106 O 1.03600 0.30319 0.74908
 Cu107 Cu 1.00463 0.33226 0.66749
 Cu108 Cu 0.99862 0.27155 0.72056
 C109 C 1.05085 0.33697 0.73760
 C110 C 0.95367 0.26994 0.64672
 C111 C 0.94894 0.33820 0.73302
 C112 C 1.05466 0.26328 0.65812
 O113 O 0.35556 0.04409 0.31565
 O114 O 0.30184 -0.04189 0.36139
 O115 O 0.36461 -0.03252 0.31204
 O116 O 0.29261 0.03639 0.35995
 O117 O 0.25454 0.03405 0.30474
 O118 O 0.32431 -0.04068 0.25893
 O119 O 0.26097 -0.04464 0.30837
 O120 O 0.31978 0.03763 0.25896
 Cu121 Cu 0.33225 0.00133 0.34300
 Cu122 Cu 0.28589 -0.00408 0.27723
 C123 C 0.34784 0.05460 0.27909
 C124 C 0.27128 -0.05680 0.34384
 C125 C 0.35729 -0.04729 0.27682
 C126 C 0.26175 0.04769 0.34052
 O127 O 0.69767 -0.04633 0.64580
 O128 O 0.63764 0.03211 0.69940
 O129 O 0.68072 0.02860 0.63151
 O130 O 0.64487 -0.04615 0.70494
 O131 O 0.69484 -0.03399 0.74733
 O132 O 0.73181 0.04259 0.67204
 O133 O 0.68869 0.04446 0.74043
 O134 O 0.74815 -0.03321 0.68732
 Cu135 Cu 0.66021 -0.00923 0.66654
 Cu136 Cu 0.72085 0.00638 0.71581
 C137 C 0.73354 -0.05256 0.65720
 C138 C 0.65298 0.05113 0.72974
 C139 C 0.71289 0.04753 0.63839
 C140 C 0.66288 -0.05311 0.73834
 O141 O 0.32547 1.03514 0.61659
 O142 O 0.37557 0.96372 0.68666
 O143 O 0.32708 0.95661 0.62467
 O144 O 0.38072 1.04092 0.67133
 O145 O 0.33322 1.04820 0.71840
 O146 O 0.27645 0.96509 0.66789
 O147 O 0.32579 0.97018 0.73115
 O148 O 0.27722 1.04381 0.66254
 Cu149 Cu 0.35698 0.99820 0.64540
 Cu150 Cu 0.29830 1.00742 0.69965
 C151 C 0.29281 1.05172 0.62774
 C152 C 0.35927 0.95499 0.72109
 C153 C 0.29239 0.94714 0.63711
 C154 C 0.36678 1.05865 0.70281
 O155 O 0.61286 0.95791 0.33639
 O156 O 0.66680 1.03296 0.39767
 O157 O 0.60902 1.03989 0.33874
 O158 O 0.66715 0.95875 0.38713
 O159 O 0.71426 0.96712 0.33972
 O160 O 0.65293 1.04411 0.28792
 O161 O 0.70811 1.04616 0.34609
 O162 O 0.65634 0.96553 0.28538
 Cu163 Cu 0.63336 0.99879 0.36880
 Cu164 Cu 0.68750 1.00662 0.30975
 C165 C 0.62588 0.94792 0.30108
 C166 C 0.69724 1.05140 0.38343
 C167 C 0.62008 1.05460 0.30441
 C168 C 0.70105 0.94971 0.37201
 C169 C 0.94011 0.77599 0.51854
 C170 C 0.94286 0.77849 0.47653
 C171 C 0.90645 0.79302 0.46294
 N172 N 0.88143 0.79929 0.49524
 C173 C 0.90193 0.78865 0.52932
 C174 C 0.89583 0.79725 0.42109
 C175 C 0.86333 0.82112 0.40823
 C176 C 0.84762 0.82131 0.36882
 C177 C 0.81735 0.84960 0.36883
 C178 C 0.81551 0.86576 0.40825
 N179 N 0.84390 0.84860 0.43189
 C180 C 0.78909 0.89656 0.42122
 C181 C 0.78328 0.90704 0.46306
 C182 C 0.76429 0.94202 0.47679
 C183 C 0.76021 0.93834 0.51856
 C184 C 0.77725 0.90146 0.52905
 N185 N 0.79138 0.88236 0.49510
 C186 C 0.77686 0.88481 0.56899
 C187 C 0.80151 0.85199 0.58055
 C188 C 0.79768 0.82983 0.61663
 C189 C 0.82867 0.80228 0.61690
 C190 C 0.85036 0.80828 0.58087
 N191 N 0.83380 0.83882 0.55912
 C192 C 0.88553 0.78719 0.56965
 H193 H 0.96343 0.76562 0.53882
 H194 H 0.96862 0.77039 0.45801
 H195 H 0.84627 0.85264 0.53328
 H196 H 0.85697 0.80301 0.34277
 H197 H 0.79881 0.85732 0.34282
 H198 H 0.75393 0.96733 0.45854
 H199 H 0.74619 0.96027 0.53889
 H200 H 0.83451 0.78032 0.64086
 H201 H 0.85202 0.85785 0.46131
 H202 H 0.77505 0.83322 0.64036
 C203 C 0.22699 0.06172 0.47778
 C204 C 0.22631 0.06204 0.51993
 C205 C 0.21383 0.10051 0.53177
 N206 N 0.20596 0.12337 0.49827
 C207 C 0.21406 0.09970 0.46529
 C208 C 0.21332 0.11546 0.57259
 C209 C 0.19229 0.15110 0.58353
 C210 C 0.19671 0.17242 0.62009
 C211 C 0.16976 0.20405 0.61909
 C212 C 0.14944 0.20087 0.58212
 N213 N 0.16332 0.16852 0.56074
 C214 C 0.11720 0.22565 0.56978
 C215 C 0.10287 0.22626 0.52903
 C216 C 0.06621 0.24195 0.51742
 C217 C 0.06484 0.23949 0.47537
 C218 C 0.10099 0.22302 0.46258
 N219 N 0.12412 0.21463 0.49550
 C220 C 0.11363 0.21908 0.42109
 C221 C 0.14606 0.19415 0.40950
 C222 C 0.16584 0.19542 0.37188
 C223 C 0.19480 0.16567 0.37291
 C224 C 0.19141 0.14681 0.41094
 N225 N 0.16152 0.16421 0.43287
 C226 C 0.21418 0.11330 0.42423
 H227 H 0.23617 0.03654 0.45844
 H228 H 0.23464 0.03698 0.53953
 H229 H 0.14987 0.15377 0.46071
 H230 H 0.21723 0.16593 0.64484
 H231 H 0.16549 0.22660 0.64300
 H232 H 0.04285 0.25388 0.53721
 H233 H 0.04012 0.24910 0.45644
 H234 H 0.21577 0.15873 0.34840
 H235 H 0.15071 0.15650 0.53414
 H236 H 0.16023 0.21585 0.34652
 C237 C 0.06331 0.77092 0.47659
 C238 C 0.06029 0.77163 0.51863
 C239 C 0.09724 0.78388 0.53319
 N240 N 0.12287 0.79049 0.50153
 C241 C 0.10222 0.78223 0.46684
 C242 C 0.10767 0.78600 0.57520
 C243 C 0.13942 0.81040 0.58944
 C244 C 0.15419 0.81035 0.62923
 C245 C 0.18308 0.84025 0.63088
 C246 C 0.18518 0.85743 0.59198
 N247 N 0.15827 0.83935 0.56708
 C248 C 0.21029 0.89005 0.58069
 C249 C 0.21773 0.90104 0.53919
 C250 C 0.23651 0.93664 0.52679
 C251 C 0.24148 0.93396 0.48498
 C252 C 0.22536 0.89691 0.47306
 N253 N 0.21084 0.87681 0.50627
 C254 C 0.22673 0.88116 0.43252
 C255 C 0.20316 0.84763 0.41987
 C256 C 0.20836 0.82575 0.38368
 C257 C 0.17760 0.79778 0.38192
 C258 C 0.15481 0.80308 0.41732
 N259 N 0.17048 0.83356 0.44013
 C260 C 0.11916 0.78187 0.42682
 H261 H 0.03960 0.76276 0.45566
 H262 H 0.03397 0.76400 0.53652
 H263 H 0.15702 0.84692 0.46574
 H264 H 0.14491 0.79109 0.65453
 H265 H 0.20052 0.84839 0.65763
 H266 H 0.24603 0.96178 0.54591
 H267 H 0.25543 0.95675 0.46560
 H268 H 0.17260 0.77606 0.35741
 H269 H 0.15039 0.84904 0.53780
 H270 H 0.23170 0.82959 0.36077
 C271 C 0.72424 0.13071 0.52823
 C272 C 0.72266 0.13251 0.48596
 C273 C 0.76169 0.12902 0.47164
 N274 N 0.78707 0.12636 0.50373
 C275 C 0.76423 0.12697 0.53827
 C276 C 0.77384 0.12488 0.42993
 C277 C 0.81140 0.14084 0.41650
 C278 C 0.82770 0.13677 0.37725
 C279 C 0.86193 0.16024 0.37599
 C280 C 0.86646 0.17725 0.41474
 N281 N 0.83544 0.16553 0.43909
 C282 C 0.89750 0.20447 0.42614
 C283 C 0.90987 0.20982 0.46769
 C284 C 0.94281 0.23251 0.48020
 C285 C 0.94480 0.22943 0.52213
 C286 C 0.91354 0.20440 0.53419
 N287 N 0.89279 0.19171 0.50082
 C288 C 0.90622 0.19193 0.57525
 C289 C 0.87638 0.16374 0.58611
 C290 C 0.87525 0.14206 0.62263
 C291 C 0.83944 0.12150 0.62337
 C292 C 0.81946 0.13188 0.58759
 N293 N 0.84241 0.15728 0.56487
 C294 C 0.77961 0.12147 0.57832
 H295 H 0.69896 0.13226 0.54917
 H296 H 0.69584 0.13581 0.46780
 H297 H 0.83297 0.17369 0.53940
 H298 H 0.81627 0.11935 0.35164
 H299 H 0.88141 0.16388 0.34953
 H300 H 0.96426 0.24872 0.46133
 H301 H 0.96755 0.24302 0.54132
 H302 H 0.82912 0.10195 0.64801
 H303 H 0.82879 0.17732 0.46805
 H304 H 0.89761 0.14148 0.64655
 C305 C 0.47196 0.76325 0.93260
 C306 C 0.51269 0.75962 0.93517
 C307 C 0.52845 0.77575 0.89916
 N308 N 0.49865 0.78906 0.87459
 C309 C 0.46403 0.78124 0.89494
 C310 C 0.56943 0.77490 0.88808
 C311 C 0.58499 0.79782 0.85484
 C312 C 0.62166 0.79140 0.83564
 C313 C 0.62578 0.82097 0.80598
 C314 C 0.59137 0.84429 0.80768
 N315 N 0.56686 0.83028 0.83772
 C316 C 0.58361 0.87812 0.78254
 C317 C 0.54522 0.89509 0.77769
 C318 C 0.53770 0.93129 0.75738
 C319 C 0.49702 0.93439 0.75417
 C320 C 0.48097 0.89993 0.77251
 N321 N 0.51050 0.87598 0.78704
 C322 C 0.44001 0.88929 0.77194
 C323 C 0.42396 0.85742 0.79629
 C324 C 0.38651 0.83984 0.79126
 C325 C 0.38230 0.81090 0.82160
 C326 C 0.41745 0.81128 0.84399
 N327 N 0.44245 0.83997 0.82872
 C328 C 0.42526 0.78644 0.87837
 H329 H 0.45059 0.75325 0.95566
 H330 H 0.52883 0.74638 0.96060
 H331 H 0.46912 0.84946 0.84206
 H332 H 0.64309 0.76769 0.84192
 H333 H 0.65102 0.82461 0.78525
 H334 H 0.55934 0.95281 0.74533
 H335 H 0.48112 0.95890 0.73937
 H336 H 0.35649 0.79147 0.82632
 H337 H 0.54082 0.84427 0.84825
 H338 H 0.36456 0.84679 0.76800
 C339 C 0.47989 0.28283 0.11999
 C340 C 0.52089 0.28171 0.12221
 C341 C 0.53121 0.24141 0.12816
 N342 N 0.49798 0.21794 0.12978
 C343 C 0.46657 0.24312 0.12437
 C344 C 0.57072 0.22608 0.12853
 C345 C 0.58028 0.18945 0.14884
 C346 C 0.61724 0.17049 0.14732
 C347 C 0.61509 0.13791 0.17367
 C348 C 0.57662 0.13732 0.19004
 N349 N 0.55575 0.16908 0.17503
 C350 C 0.56247 0.10915 0.21963
 C351 C 0.52122 0.10086 0.22634
 C352 C 0.50638 0.07048 0.25182
 C353 C 0.46570 0.07026 0.24741
 C354 C 0.45663 0.10044 0.21929
 N355 N 0.49072 0.11859 0.20593
 C356 C 0.41768 0.10849 0.20430
 C357 C 0.40943 0.13783 0.17397
 C358 C 0.37421 0.13981 0.15174
 C359 C 0.37676 0.17395 0.12755
 C360 C 0.41328 0.19217 0.13605
 N361 N 0.43297 0.16994 0.16438
 C362 C 0.42650 0.22977 0.12001
 H363 H 0.46198 0.30976 0.11544
 H364 H 0.54086 0.30755 0.11963
 H365 H 0.45870 0.17885 0.17982
 H366 H 0.64333 0.17936 0.12957
 H367 H 0.63927 0.11706 0.17979
 H368 H 0.52290 0.04922 0.27044
 H369 H 0.44548 0.04903 0.26220
 H370 H 0.35401 0.18429 0.10651
 H371 H 0.52792 0.17880 0.18547
 H372 H 0.34911 0.11898 0.15292
 C373 C 0.52551 0.24481 0.92638
 C374 C 0.48509 0.25108 0.92469
 C375 C 0.47283 0.23694 0.88662
 N376 N 0.50434 0.22292 0.86464
 C377 C 0.53673 0.22815 0.88874
 C378 C 0.43354 0.23957 0.87168
 C379 C 0.41911 0.21350 0.84055
 C380 C 0.38273 0.21716 0.82062
 C381 C 0.37902 0.18358 0.79543
 C382 C 0.41354 0.16091 0.80031
 N383 N 0.43760 0.17914 0.82798
 C384 C 0.42175 0.12360 0.78082
 C385 C 0.46090 0.10745 0.77786
 C386 C 0.47015 0.06841 0.76472
 C387 C 0.51098 0.06673 0.76094
 C388 C 0.52539 0.10454 0.77260
 N389 N 0.49478 0.12940 0.78294
 C390 C 0.56596 0.11648 0.77089
 C391 C 0.58047 0.15049 0.79329
 C392 C 0.61764 0.16887 0.78818
 C393 C 0.62099 0.19804 0.81857
 C394 C 0.58544 0.19734 0.84067
 N395 N 0.56104 0.16830 0.82523
 C396 C 0.57653 0.22177 0.87528
 H397 H 0.54442 0.25218 0.95227
 H398 H 0.46670 0.26413 0.94886
 H399 H 0.53440 0.15839 0.83870
 H400 H 0.36092 0.24115 0.82416
 H401 H 0.35394 0.17677 0.77564
 H402 H 0.44964 0.04382 0.75790
 H403 H 0.52809 0.04059 0.75091
 H404 H 0.64647 0.21780 0.82354
 H405 H 0.46322 0.16652 0.84066
 H406 H 0.64018 0.16198 0.76519
 C407 C 0.51226 0.90470 0.27281
 C408 C 0.47191 0.89769 0.27506
 C409 C 0.46132 0.87804 0.23898
 N410 N 0.49421 0.87169 0.21536
 C411 C 0.52560 0.88768 0.23607
 C412 C 0.42149 0.87009 0.22641
 C413 C 0.41217 0.84408 0.19318
 C414 C 0.37504 0.84170 0.17445
 C415 C 0.37777 0.81205 0.14475
 C416 C 0.41649 0.79709 0.14611
 N417 N 0.43722 0.81664 0.17588
 C418 C 0.43120 0.76508 0.12132
 C419 C 0.47263 0.75672 0.11750
 C420 C 0.48870 0.72192 0.10011
 C421 C 0.52904 0.72833 0.09667
 C422 C 0.53686 0.76622 0.11381
 N423 N 0.50215 0.78356 0.12625
 C424 C 0.57461 0.78611 0.11422
 C425 C 0.58171 0.82222 0.13680
 C426 C 0.61542 0.84666 0.13278
 C427 C 0.61283 0.87609 0.16285
 C428 C 0.57757 0.86894 0.18444
 N429 N 0.55896 0.83591 0.16850
 C430 C 0.56520 0.89032 0.22015
 H431 H 0.52907 0.92129 0.29562
 H432 H 0.45249 0.90709 0.30007
 H433 H 0.53486 0.82058 0.18169
 H434 H 0.34869 0.85957 0.18128
 H435 H 0.35394 0.80277 0.12436
 H436 H 0.47302 0.69494 0.08994
 H437 H 0.54953 0.70725 0.08235
 H438 H 0.63491 0.89950 0.16864
 H439 H 0.46551 0.80899 0.18646
 H440 H 0.63993 0.84315 0.11115
 C441 C 0.77181 0.47140 0.94123
 C442 C 0.76699 0.51274 0.94077
 C443 C 0.78066 0.52596 0.90274
 N444 N 0.79322 0.49407 0.87973
 C445 C 0.78751 0.46059 0.90311
 C446 C 0.77839 0.56644 0.88864
 C447 C 0.80102 0.58036 0.85448
 C448 C 0.79573 0.61709 0.83440
 C449 C 0.82498 0.61942 0.80434
 C450 C 0.84690 0.58381 0.80659
 N451 N 0.83240 0.56043 0.83740
 C452 C 0.88040 0.57423 0.78183
 C453 C 0.89600 0.53436 0.77852
 C454 C 0.93299 0.52465 0.76159
 C455 C 0.93460 0.48315 0.75916
 C456 C 0.89882 0.46875 0.77527
 N457 N 0.87523 0.50008 0.78718
 C458 C 0.88723 0.42747 0.77612
 C459 C 0.85549 0.41372 0.80155
 C460 C 0.83604 0.37655 0.79822
 C461 C 0.80945 0.37424 0.83072
 C462 C 0.81295 0.41037 0.85244
 N463 N 0.84106 0.43415 0.83461
 C464 C 0.79155 0.42019 0.88856
 H465 H 0.76365 0.45144 0.96636
 H466 H 0.75459 0.53097 0.96547
 H467 H 0.85252 0.46100 0.84690
 H468 H 0.77324 0.63989 0.84065
 H469 H 0.82941 0.64432 0.78305
 H470 H 0.95620 0.54535 0.75140
 H471 H 0.95929 0.46559 0.74692
 H472 H 0.78954 0.34906 0.83736
 H473 H 0.84575 0.53414 0.84849
 H474 H 0.84039 0.35346 0.77489
 C475 C 0.24343 0.52112 0.06236
 C476 C 0.24275 0.47958 0.06393
 C477 C 0.22767 0.46910 0.10234
 N478 N 0.21888 0.50293 0.12423
 C479 C 0.22872 0.53480 0.09983
 C480 C 0.22420 0.42893 0.11746
 C481 C 0.19745 0.41821 0.14955
 C482 C 0.19633 0.38086 0.16926
 C483 C 0.16369 0.38143 0.19544
 C484 C 0.14580 0.41910 0.19098
 N485 N 0.16653 0.44123 0.16288
 C486 C 0.11006 0.43153 0.21085
 C487 C 0.09759 0.47265 0.21089
 C488 C 0.05957 0.48613 0.22117
 C489 C 0.06101 0.52779 0.22038
 C490 C 0.09983 0.53845 0.20947
 N491 N 0.12211 0.50472 0.20358
 C492 C 0.11496 0.57871 0.20849
 C493 C 0.15042 0.58969 0.18742
 C494 C 0.16930 0.62721 0.19014
 C495 C 0.20084 0.62654 0.16262
 C496 C 0.20037 0.58857 0.14407
 N497 N 0.16948 0.56642 0.15924
 C498 C 0.22609 0.57605 0.11191
 H499 H 0.25339 0.53908 0.03643
 H500 H 0.25210 0.45944 0.03939
 H501 H 0.15922 0.53882 0.14769
 H502 H 0.21657 0.35560 0.16480
 H503 H 0.15408 0.35677 0.21519
 H504 H 0.03348 0.46792 0.22850
 H505 H 0.03630 0.54796 0.22715
 H506 H 0.22150 0.65127 0.15669
 H507 H 0.15754 0.46853 0.14989
 H508 H 0.16093 0.65266 0.20949
 C509 C 0.93772 0.50650 0.23606
 C510 C 0.93562 0.46525 0.23078
 C511 C 0.89783 0.45678 0.21539
 N512 N 0.87715 0.49158 0.21023
 C513 C 0.90151 0.52194 0.22291
 C514 C 0.88109 0.41739 0.21162
 C515 C 0.84534 0.40988 0.19000
 C516 C 0.82165 0.37544 0.19375
 C517 C 0.78986 0.38039 0.16729
 C518 C 0.79555 0.41738 0.14762
 N519 N 0.82950 0.43499 0.16164
 C520 C 0.77126 0.43353 0.11608
 C521 C 0.77551 0.47401 0.10246
 C522 C 0.76233 0.48832 0.06487
 C523 C 0.76960 0.52931 0.06468
 C524 C 0.78599 0.53891 0.10263
 N525 N 0.79000 0.50492 0.12555
 C526 C 0.79278 0.57884 0.11748
 C527 C 0.81556 0.58662 0.15296
 C528 C 0.81449 0.62208 0.17601
 C529 C 0.84154 0.61729 0.20750
 C530 C 0.85890 0.57937 0.20214
 N531 N 0.84284 0.56099 0.16880
 C532 C 0.89015 0.56303 0.22608
 H533 H 0.96292 0.52322 0.24835
 H534 H 0.95889 0.44383 0.23852
 H535 H 0.85254 0.53412 0.15505
 H536 H 0.82645 0.34976 0.21386
 H537 H 0.76548 0.35912 0.16313
 H538 H 0.74895 0.47099 0.04017
 H539 H 0.76277 0.54981 0.03973
 H540 H 0.84762 0.63931 0.23144
 H541 H 0.84324 0.46096 0.14988
 H542 H 0.79577 0.64837 0.17102
 C543 C 0.05342 0.51738 0.76638
 C544 C 0.05620 0.47590 0.76484
 C545 C 0.09291 0.46590 0.78154
 N546 N 0.11284 0.49989 0.79288
 C547 C 0.08881 0.53149 0.78333
 C548 C 0.10869 0.42620 0.78277
 C549 C 0.14101 0.41516 0.80805
 C550 C 0.16226 0.37908 0.80527
 C551 C 0.18923 0.37924 0.83711
 C552 C 0.18398 0.41563 0.85796
 N553 N 0.15437 0.43716 0.84029
 C554 C 0.20536 0.42777 0.89311
 C555 C 0.20646 0.46868 0.90650
 C556 C 0.22097 0.48170 0.94412
 C557 C 0.22065 0.52334 0.94323
 C558 C 0.20589 0.53443 0.90513
 N559 N 0.19706 0.50097 0.88273
 C560 C 0.20418 0.57480 0.89028
 C561 C 0.17935 0.58654 0.85736
 C562 C 0.17997 0.62432 0.83849
 C563 C 0.15014 0.62395 0.80938
 C564 C 0.13235 0.58587 0.81115
 N565 N 0.15000 0.56350 0.84080
 C566 C 0.09995 0.57293 0.78661
 H567 H 0.02838 0.53509 0.75570
 H568 H 0.03381 0.45536 0.75270
 H569 H 0.14014 0.53551 0.85175
 H570 H 0.15870 0.35505 0.78279
 H571 H 0.21051 0.35548 0.84388
 H572 H 0.23114 0.46310 0.96932
 H573 H 0.23045 0.54330 0.96766
 H574 H 0.14264 0.64877 0.78906
 H575 H 0.14134 0.46347 0.85202
 H576 H 0.19973 0.64960 0.84505
 C577 C 0.28477 0.40029 0.08416
 C578 C 0.24656 0.39590 0.09629
 H579 H 0.30138 0.42723 0.09304
 H580 H 0.23010 0.36863 0.08818
 C581 C 0.73551 0.61242 0.08548
 C582 C 0.77408 0.61368 0.09596
 H583 H 0.71730 0.58684 0.09531
 H584 H 0.79266 0.63936 0.08730
 C585 C 0.73072 0.39126 0.91816
 C586 C 0.76977 0.38731 0.91051
 H587 H 0.71513 0.41741 0.90591
 H588 H 0.78618 0.36130 0.92172
 C589 C 0.26897 0.59906 0.91594
 C590 C 0.22999 0.60607 0.90999
 H591 H 0.28192 0.57101 0.90452
 H592 H 0.21662 0.63435 0.92015
 C593 C 0.08264 0.28094 0.39316
 C594 C 0.09190 0.24162 0.38851
 H595 H 0.09375 0.29732 0.41975
 H596 H 0.08175 0.22496 0.36172
 C597 C 0.07505 0.72315 0.59865
 C598 C 0.08382 0.76227 0.60555
 H599 H 0.08709 0.70826 0.57148
 H600 H 0.07289 0.77741 0.63304
 C601 C 0.92471 0.73479 0.39278
 C602 C 0.91929 0.77487 0.38939
 H603 H 0.91060 0.71878 0.41819
 H604 H 0.93205 0.79148 0.36369
 C605 C 0.92788 0.24981 0.61666
 C606 C 0.93001 0.20997 0.60905
 H607 H 0.90994 0.26889 0.59688
 H608 H 0.94837 0.19052 0.62798
 C609 C 0.37373 0.08531 0.26004
 C610 C 0.38375 0.08383 0.22020
 H611 H 0.39001 0.10560 0.28032
 H612 H 0.36869 0.06301 0.19951
 C613 C 0.62921 0.08005 0.75444
 C614 C 0.59273 0.09225 0.74339
 H615 H 0.64139 0.08972 0.78370
 H616 H 0.58031 0.08093 0.71482
 C617 C 0.37985 0.92814 0.75049
 C618 C 0.41481 0.91058 0.74118
 H619 H 0.36721 0.92471 0.78110
 H620 H 0.42781 0.91550 0.71092
 C621 C 0.60471 0.91541 0.27901
 C622 C 0.59418 0.91893 0.23957
 H623 H 0.59263 0.89057 0.29713
 H624 H 0.60566 0.94403 0.22141
 C625 C 0.37247 0.26323 0.90746
 C626 C 0.40793 0.27148 0.89016
 H627 H 0.35922 0.23335 0.90382
 H628 H 0.42197 0.30066 0.89601
 C629 C 0.63173 0.75567 0.92510
 C630 C 0.59544 0.74593 0.91062
 H631 H 0.64416 0.78557 0.91930
 H632 H 0.58250 0.71670 0.91852
 C633 C 0.40788 0.72980 0.05844
 C634 C 0.40151 0.74055 0.09762
 H635 H 0.43542 0.73828 0.04292
 H636 H 0.37338 0.73243 0.11227
 C637 C 0.59665 0.26594 0.06980
 C638 C 0.60328 0.24843 0.10620
 H639 H 0.56699 0.26502 0.05661
 H640 H 0.63311 0.24936 0.11900
 C641 C 0.27271 0.07925 0.59891
 C642 C 0.23547 0.09320 0.60514
 H643 H 0.28806 0.08603 0.57023
 H644 H 0.22053 0.08799 0.63437
 C645 C 0.71927 0.07558 0.41065
 C646 C 0.74774 0.10253 0.39949
 H647 H 0.71288 0.07050 0.44284
 H648 H 0.75297 0.10703 0.36694
 C649 C 0.75959 0.91939 0.63405
 C650 C 0.74786 0.90251 0.59869
 H651 H 0.79040 0.91628 0.64372
 H652 H 0.71770 0.90771 0.58787
 C653 C 0.24587 0.91364 0.36609
 C654 C 0.25576 0.90052 0.40368
 H655 H 0.21677 0.90635 0.35352
 H656 H 0.28446 0.90935 0.41631
 C657 C 0.07710 0.36012 0.76529
 C658 C 0.09133 0.39646 0.75373
 H659 H 0.08132 0.34942 0.79647
 H660 H 0.08541 0.40749 0.72295
 C661 C 0.08239 0.60521 0.27048
 C662 C 0.09286 0.61082 0.23117
 H663 H 0.09145 0.57757 0.28593
 H664 H 0.08486 0.63850 0.21526
 C665 C 0.90825 0.38777 0.27415
 C666 C 0.90077 0.38366 0.23395
 H667 H 0.89515 0.41326 0.29058
 H668 H 0.91314 0.35858 0.21644
 C669 C 0.90801 0.60230 0.71782
 C670 C 0.90000 0.60721 0.75792
 H671 H 0.89668 0.57556 0.70211
 H672 H 0.91033 0.63399 0.77420
 C673 C 0.75750 0.62997 0.92489
 C674 C 0.74853 0.59321 0.90941
 H675 H 0.78713 0.64251 0.91964
 H676 H 0.71967 0.57964 0.91643
 C677 C 0.26806 0.40236 0.92222
 C678 C 0.22897 0.39669 0.91548
 H679 H 0.28225 0.42941 0.90973
 H680 H 0.21405 0.36917 0.92569
 C681 C 0.28675 0.60199 0.07606
 C682 C 0.24881 0.60775 0.08857
 H683 H 0.30226 0.57486 0.08597
 H684 H 0.23312 0.63527 0.08018
 C685 C 0.74438 0.37170 0.08124
 C686 C 0.73884 0.40914 0.09654
 H687 H 0.77246 0.35632 0.08674
 H688 H 0.71139 0.42513 0.08955
 C689 C 0.91761 0.72431 0.59369
 C690 C 0.90601 0.76253 0.60158
 H691 H 0.90940 0.71067 0.56448
 H692 H 0.91220 0.77651 0.63111
 C693 C 0.92402 0.26792 0.39633
 C694 C 0.91888 0.22756 0.39291
 H695 H 0.91068 0.28320 0.42266
 H696 H 0.93141 0.21127 0.36687
 C697 C 0.08205 0.24030 0.63539
 C698 C 0.09726 0.25335 0.59953
 H699 H 0.08844 0.20967 0.64560
 H700 H 0.08984 0.28348 0.58853
 C701 C 0.08227 0.72266 0.39890
 C702 C 0.09820 0.75976 0.39317
 H703 H 0.08780 0.70697 0.42763
 H704 H 0.09464 0.77527 0.36402
 C705 C 0.64453 0.91801 0.76750
 C706 C 0.61502 0.89364 0.75460
 H707 H 0.65123 0.92059 0.79998
 H708 H 0.60823 0.89200 0.72204
 C709 C 0.38923 0.93106 0.25535
 C710 C 0.38767 0.89132 0.24734
 H711 H 0.41572 0.94851 0.24749
 H712 H 0.36058 0.87447 0.25444
 C713 C 0.59347 0.08284 0.28302
 C714 C 0.59268 0.08467 0.24186
 H715 H 0.57148 0.09937 0.30105
 H716 H 0.61427 0.06755 0.22392
 C717 C 0.39174 0.09018 0.72148
 C718 C 0.38846 0.10136 0.76085
 H719 H 0.41754 0.10031 0.70380
 H720 H 0.36284 0.09223 0.77926
 C721 C 0.62183 0.73328 0.09057
 C722 C 0.60718 0.77078 0.08701
 H723 H 0.61068 0.71334 0.11457
 H724 H 0.61803 0.79039 0.06256
 C725 C 0.40704 0.27469 0.06262
 C726 C 0.39704 0.25490 0.09705
 H727 H 0.43766 0.27420 0.05152
 H728 H 0.36615 0.25531 0.10740
 C729 C 0.60778 0.28003 0.91068
 C730 C 0.60989 0.24123 0.89822
 H731 H 0.58317 0.29875 0.90040
 H732 H 0.63501 0.22250 0.90703
 C733 C 0.39334 0.72321 0.90101
 C734 C 0.39155 0.76367 0.89759
 H735 H 0.41774 0.70725 0.88594
 H736 H 0.36766 0.78064 0.91228
 C737 C 0.72533 0.92029 0.39430
 C738 C 0.76502 0.91791 0.38987
 H739 H 0.71087 0.90400 0.41933
 H740 H 0.78026 0.93339 0.36485
 C741 C 0.27066 0.91649 0.61322
 C742 C 0.23086 0.91307 0.61371
 H743 H 0.28757 0.90005 0.58997
 H744 H 0.21305 0.92878 0.63670
 C745 C 0.23348 0.07570 0.36076
 C746 C 0.24326 0.09327 0.39646
 H747 H 0.20382 0.07949 0.34811
 H748 H 0.27277 0.08819 0.40912
 C749 C 0.72948 0.07264 0.60510
 C750 C 0.75487 0.10321 0.61188
 H751 H 0.72275 0.06324 0.57394
 H752 H 0.76115 0.11167 0.64344
 C753 C 0.92642 0.62464 0.25062
 C754 C 0.91095 0.58778 0.25783
 H755 H 0.92194 0.63906 0.22107
 H756 H 0.91756 0.57282 0.28669
 C757 C 0.92085 0.36194 0.75868
 C758 C 0.90885 0.39920 0.74781
 H759 H 0.91279 0.34988 0.78860
 H760 H 0.91865 0.41129 0.71840
 C761 C 0.06933 0.59858 0.72280
 C762 C 0.07736 0.60398 0.76281
 H763 H 0.08110 0.57199 0.70718
 H764 H 0.06700 0.63102 0.77864
 C765 C 0.07104 0.40644 0.27073
 C766 C 0.08515 0.40020 0.23251
 H767 H 0.07863 0.43455 0.28635
 H768 H 0.07940 0.37153 0.21716
   
