data_POSCAR
  _audit_creation_date              2014-09-24
  _audit_creation_method            'ToBaCCo'
  _symmetry_space_group_name_H-M    'P1'
  _symmetry_Int_Tables_number       1
  _symmetry_cell_setting            triclinic
  loop_
  _symmetry_equiv_pos_as_xyz
 x,y,z
_cell_length_a 8.9711
_cell_length_b 9.4960
_cell_length_c 9.4960
_cell_angle_alpha 94.987600
_cell_angle_beta 83.552200
_cell_angle_gamma 96.447800
loop_
  _atom_site_label
  _atom_site_type_symbol
  _atom_site_fract_x
  _atom_site_fract_y
  _atom_site_fract_z
C1 C 0.03880 0.52427 0.22305
 C2 C -0.03822 0.47631 0.77695
 C3 C 0.25029 -0.02728 0.47243
 C4 C 0.75029 0.02786 0.52757
 C5 C 0.53880 0.27724 0.97602
 C6 C 0.46178 0.72333 1.02398
 B7 B 0.98729 1.15019 0.09107
 B8 B 1.08935 1.02703 0.14066
 B9 B 0.89804 0.99758 0.15021
 B10 B 0.84173 1.06493 0.00891
 B11 B 0.99687 1.13554 -0.09004
 B12 B 1.14893 1.11232 -0.00784
 B13 B 1.01329 0.85039 -0.09107
 B14 B 0.91123 0.97355 -0.14066
 B15 B 1.10254 1.00300 -0.15021
 B16 B 1.15885 0.93565 -0.00891
 B17 B 1.00371 0.86503 0.09004
 B18 B 0.85165 0.88826 0.00784
 B19 B 0.64893 0.50813 0.38797
 B20 B 0.49687 0.59033 0.36475
 B21 B 0.48729 0.40922 0.35010
 B22 B 0.58935 0.35963 0.47326
 B23 B 0.65885 0.50920 0.56464
 B24 B 0.60254 0.65050 0.49729
 B25 B 0.35165 0.49245 0.61203
 B26 B 0.50371 0.41025 0.63525
 B27 B 0.51329 0.59136 0.64990
 B28 B 0.41123 0.64095 0.52674
 B29 B 0.34173 0.49138 0.43536
 B30 B 0.39804 0.35008 0.50271
 N31 N 1.05310 1.38958 0.13950
 N32 N 0.96715 1.28622 0.18232
 N33 N 1.03099 0.63109 0.12527
 N34 N 1.00541 0.74818 0.18673
 N35 N 0.96959 1.36949 -0.12527
 N36 N 0.99517 1.25240 -0.18674
 N37 N 0.94748 0.61100 -0.13951
 N38 N 1.03343 0.71436 -0.18232
 N39 N 1.15994 0.95708 0.35157
 N40 N 1.17941 1.05512 0.26914
 N41 N 1.14630 0.97158 -0.39695
 N42 N 1.20869 1.00606 -0.28607
 N43 N 0.85428 1.02900 0.39695
 N44 N 0.79189 0.99452 0.28607
 N45 N 0.84064 1.04349 -0.35157
 N46 N 0.82117 0.94545 -0.26914
 N47 N 1.40709 1.17102 -0.01845
 N48 N 1.28434 1.22239 -0.01355
 N49 N 0.67414 1.20689 -0.06024
 N50 N 0.69223 1.12479 0.03027
 N51 N 1.32644 0.79369 0.06024
 N52 N 1.30835 0.87579 -0.03027
 N53 N 0.59349 0.82955 0.01845
 N54 N 0.71624 0.77818 0.01355
 N55 N 0.90709 0.51874 0.32926
 N56 N 0.78434 0.51384 0.27789
 N57 N 0.17414 0.56053 0.29340
 N58 N 0.19223 0.47002 0.37550
 N59 N 0.82644 0.44005 0.70660
 N60 N 0.80835 0.53055 0.62450
 N61 N 0.09349 0.48184 0.67073
 N62 N 0.21624 0.48674 0.72210
 N63 N 0.46959 0.62556 0.13080
 N64 N 0.49517 0.68702 0.24789
 N65 N 0.44748 0.63979 0.88929
 N66 N 0.53343 0.68261 0.78593
 N67 N 0.55310 0.36078 0.11071
 N68 N 0.46715 0.31797 0.21407
 N69 N 0.53099 0.37502 0.86920
 N70 N 0.50541 0.31355 0.75211
 N71 N 0.64630 0.89724 0.52871
 N72 N 0.70869 0.78636 0.49423
 N73 N 0.65994 0.14872 0.54321
 N74 N 0.67941 0.23115 0.44516
 N75 N 0.34064 0.85186 0.45679
 N76 N 0.32117 0.76943 0.55483
 N77 N 0.35428 0.10334 0.47129
 N78 N 0.29189 0.21422 0.50577
   
