data_POSCAR
  _audit_creation_date              2014-09-24
  _audit_creation_method            'ToBaCCo'
  _symmetry_space_group_name_H-M    'P1'
  _symmetry_Int_Tables_number       1
  _symmetry_cell_setting            triclinic
  loop_
  _symmetry_equiv_pos_as_xyz
 x,y,z
_cell_length_a 57.5338
_cell_length_b 57.5727
_cell_length_c 55.1953
_cell_angle_alpha 90.044500
_cell_angle_beta 89.938400
_cell_angle_gamma 89.995500
loop_
  _atom_site_label
  _atom_site_type_symbol
  _atom_site_fract_x
  _atom_site_fract_y
  _atom_site_fract_z
C1 C 0.28506 0.28140 0.24032
 H2 H 0.28613 0.28178 0.25988
 C3 C 0.30001 0.29515 0.22647
 H4 H 0.31260 0.30625 0.23536
 C5 C 0.26750 0.26635 0.20475
 H6 H 0.25504 0.25488 0.19633
 C7 C 0.28213 0.27982 0.19023
 H8 H 0.28073 0.27886 0.17068
 N9 N 0.26900 0.26761 0.22934
 C10 C 0.21413 0.25850 0.28316
 H11 H 0.21307 0.23974 0.28374
 C12 C 0.19922 0.27190 0.29745
 H13 H 0.18668 0.26349 0.30918
 C14 C 0.23155 0.29246 0.26697
 H15 H 0.24390 0.30043 0.25482
 C16 C 0.21697 0.30650 0.28096
 H17 H 0.21831 0.32523 0.27971
 Zn18 Zn 0.24948 0.24951 0.24952
 N19 N 0.23009 0.26890 0.26854
 C20 C 0.26771 0.23269 0.29414
 N21 N 0.26900 0.23130 0.26954
 C22 C 0.28493 0.21739 0.25846
 C23 C 0.29996 0.20367 0.27222
 C24 C 0.28243 0.21926 0.30857
 C25 C 0.21384 0.24083 0.21624
 C26 C 0.19871 0.22756 0.20210
 C27 C 0.21632 0.19280 0.21834
 C28 C 0.23114 0.20670 0.23218
 N29 N 0.22984 0.23027 0.23066
 H30 H 0.25538 0.24425 0.30263
 H31 H 0.28584 0.21692 0.23889
 H32 H 0.31246 0.19251 0.26325
 H33 H 0.28121 0.22035 0.32813
 H34 H 0.21293 0.25959 0.21570
 H35 H 0.18613 0.23610 0.19054
 H36 H 0.21752 0.17406 0.21955
 H37 H 0.24353 0.19861 0.24417
 C38 C 0.20073 0.29612 0.29639
 C39 C 0.29844 0.29442 0.20121
 C40 C 0.20002 0.20333 0.20312
 C41 C 0.29862 0.20457 0.29750
 C42 C 0.78581 0.78188 0.24042
 H43 H 0.78685 0.78236 0.25998
 C44 C 0.80068 0.79567 0.22652
 H45 H 0.81317 0.80688 0.23543
 C46 C 0.76838 0.76653 0.20492
 H47 H 0.75601 0.75494 0.19656
 C48 C 0.78293 0.78003 0.19033
 H49 H 0.78150 0.77892 0.17078
 N50 N 0.76985 0.76793 0.22950
 C51 C 0.71497 0.75873 0.28330
 H52 H 0.71403 0.73998 0.28397
 C53 C 0.69998 0.77212 0.29752
 H54 H 0.68748 0.76368 0.30928
 C55 C 0.73221 0.79272 0.26696
 H56 H 0.74453 0.80071 0.25478
 C57 C 0.71754 0.80674 0.28087
 H58 H 0.71879 0.82547 0.27954
 Zn59 Zn 0.75043 0.74981 0.24976
 N60 N 0.73089 0.76917 0.26865
 C61 C 0.76866 0.73325 0.29449
 N62 N 0.77004 0.73181 0.26990
 C63 C 0.78606 0.71796 0.25891
 C64 C 0.80110 0.70433 0.27275
 C65 C 0.78338 0.71991 0.30900
 C66 C 0.71489 0.74067 0.21646
 C67 C 0.69989 0.72721 0.20237
 C68 C 0.71774 0.69268 0.21888
 C69 C 0.73241 0.70678 0.23266
 N70 N 0.73095 0.73033 0.23099
 H71 H 0.75624 0.74477 0.30291
 H72 H 0.78704 0.71744 0.23934
 H73 H 0.81367 0.69319 0.26386
 H74 H 0.78209 0.72102 0.32855
 H75 H 0.71384 0.75942 0.21579
 H76 H 0.68728 0.73558 0.19071
 H77 H 0.71909 0.67395 0.22020
 H78 H 0.74484 0.69886 0.24474
 C79 C 0.70136 0.79634 0.29634
 C80 C 0.79915 0.79481 0.20124
 C81 C 0.70140 0.70300 0.20354
 C82 C 0.79967 0.70525 0.29802
 C83 C 0.78658 0.28100 0.74159
 H84 H 0.78756 0.28135 0.76116
 C85 C 0.80154 0.29482 0.72784
 H86 H 0.81406 0.30594 0.73681
 C87 C 0.76919 0.26597 0.70592
 H88 H 0.75680 0.25449 0.69742
 C89 C 0.78385 0.27950 0.69149
 H90 H 0.78252 0.27858 0.67194
 N91 N 0.77059 0.26720 0.73051
 C92 C 0.71543 0.25792 0.78399
 H93 H 0.71440 0.23917 0.78455
 C94 C 0.70041 0.27130 0.79820
 H95 H 0.68781 0.26285 0.80983
 C96 C 0.73291 0.29192 0.76796
 H97 H 0.74532 0.29993 0.75590
 C98 C 0.71822 0.30593 0.78186
 H99 H 0.71955 0.32467 0.78064
 Zn100 Zn 0.75099 0.24903 0.75055
 N101 N 0.73147 0.26836 0.76950
 C102 C 0.76897 0.23209 0.79524
 N103 N 0.77043 0.23080 0.77065
 C104 C 0.78643 0.21695 0.75962
 C105 C 0.80138 0.20317 0.77341
 C106 C 0.78359 0.21862 0.80973
 C107 C 0.71554 0.24037 0.71706
 C108 C 0.70053 0.22712 0.70275
 C109 C 0.71816 0.19234 0.71895
 C110 C 0.73284 0.20623 0.73296
 N111 N 0.73148 0.22980 0.73154
 H112 H 0.75657 0.24362 0.80368
 H113 H 0.78746 0.21655 0.74005
 H114 H 0.81392 0.19208 0.76438
 H115 H 0.78215 0.21971 0.82929
 H116 H 0.71457 0.25913 0.71659
 H117 H 0.68801 0.23566 0.69114
 H118 H 0.71942 0.17360 0.72007
 H119 H 0.74519 0.19813 0.74500
 C120 C 0.70190 0.29552 0.79717
 C121 C 0.80007 0.29413 0.70257
 C122 C 0.70193 0.20289 0.70366
 C123 C 0.79989 0.20395 0.79872
 C124 C 0.28586 0.78232 0.74127
 H125 H 0.28687 0.78272 0.76084
 C126 C 0.30080 0.79612 0.72746
 H127 H 0.31331 0.80727 0.73638
 C128 C 0.26847 0.76716 0.70567
 H129 H 0.25609 0.75563 0.69722
 C130 C 0.28309 0.78067 0.69118
 H131 H 0.28175 0.77968 0.67163
 N132 N 0.26989 0.76845 0.73025
 C133 C 0.21491 0.75905 0.78391
 H134 H 0.21395 0.74029 0.78449
 C135 C 0.19988 0.77238 0.79815
 H136 H 0.18734 0.76390 0.80982
 C137 C 0.23222 0.79310 0.76779
 H138 H 0.24457 0.80113 0.75568
 C139 C 0.21751 0.80706 0.78171
 H140 H 0.21876 0.82580 0.78046
 Zn141 Zn 0.25040 0.75025 0.75037
 N142 N 0.23087 0.76953 0.76935
 C143 C 0.26857 0.73339 0.79502
 N144 N 0.26996 0.73210 0.77042
 C145 C 0.28599 0.71831 0.75935
 C146 C 0.30104 0.70461 0.77310
 C147 C 0.28330 0.71997 0.80945
 C148 C 0.21490 0.74140 0.71697
 C149 C 0.19993 0.72807 0.70272
 C150 C 0.21771 0.69339 0.71896
 C151 C 0.23236 0.70736 0.73290
 N152 N 0.23092 0.73092 0.73144
 H153 H 0.25615 0.74486 0.80351
 H154 H 0.28698 0.71792 0.73977
 H155 H 0.31361 0.69354 0.76414
 H156 H 0.28200 0.72097 0.82901
 H157 H 0.21387 0.76016 0.71647
 H158 H 0.18735 0.73655 0.69111
 H159 H 0.21904 0.67465 0.72011
 H160 H 0.24476 0.69933 0.74493
 C161 C 0.20127 0.79660 0.79708
 C162 C 0.29931 0.79535 0.70219
 C163 C 0.20142 0.70385 0.70367
 C164 C 0.29960 0.70539 0.79838
 C165 C 0.03048 0.03544 0.00920
 H166 H 0.03095 0.03654 -0.01036
 C167 C 0.04415 0.05039 0.02314
 H168 H 0.05528 0.06300 0.01432
 C169 C 0.01527 0.01782 0.04467
 H170 H 0.00377 0.00536 0.05302
 C171 C 0.02866 0.03244 0.05928
 H172 H 0.02759 0.03102 0.07882
 N173 N 0.01665 0.01936 0.02010
 C174 C 0.00767 -0.03542 -0.03380
 H175 H -0.01109 -0.03647 -0.03443
 C176 C 0.02113 -0.05030 -0.04807
 H177 H 0.01274 -0.06282 -0.05983
 C178 C 0.04161 -0.01801 -0.01752
 H179 H 0.04956 -0.00567 -0.00535
 C180 C 0.05570 -0.03257 -0.03148
 H181 H 0.07444 -0.03122 -0.03019
 Zn182 Zn -0.00141 -0.00010 -0.00018
 N183 N 0.01805 -0.01947 -0.01915
 C184 C -0.01812 0.01815 -0.04484
 N185 N -0.01954 0.01945 -0.02025
 C186 C -0.03345 0.03539 -0.00918
 C187 C -0.04714 0.05043 -0.02296
 C188 C -0.03152 0.03288 -0.05929
 C189 C -0.01028 -0.03574 0.03305
 C190 C -0.02364 -0.05079 0.04720
 C191 C -0.05833 -0.03307 0.03088
 C192 C -0.04433 -0.01834 0.01704
 N193 N -0.02076 -0.01972 0.01860
 H194 H -0.00656 0.00580 -0.05332
 H195 H -0.03395 0.03630 0.01039
 H196 H -0.05830 0.06293 -0.01401
 H197 H -0.03041 0.03166 -0.07884
 H198 H 0.00849 -0.03672 0.03363
 H199 H -0.01517 -0.06337 0.05881
 H200 H -0.07708 -0.03178 0.02966
 H201 H -0.05236 -0.00593 0.00502
 C202 C 0.04536 -0.04879 -0.04695
 C203 C 0.04329 0.04879 0.04840
 C204 C -0.04788 -0.04936 0.04616
 C205 C -0.04622 0.04909 -0.04824
 C206 C 0.03211 0.53573 0.50945
 H207 H 0.03248 0.53675 0.48988
 C208 C 0.04589 0.55070 0.52323
 H209 H 0.05699 0.56326 0.51429
 C210 C 0.01706 0.51829 0.54509
 H211 H 0.00558 0.50589 0.55356
 C212 C 0.03055 0.53295 0.55955
 H213 H 0.02959 0.53162 0.57910
 N214 N 0.01831 0.51972 0.52050
 C215 C 0.00888 0.46481 0.46684
 H216 H -0.00989 0.46380 0.46635
 C217 C 0.02220 0.44986 0.45251
 H218 H 0.01371 0.43734 0.44084
 C219 C 0.04297 0.48218 0.48283
 H220 H 0.05102 0.49453 0.49491
 C221 C 0.05693 0.46756 0.46880
 H222 H 0.07568 0.46887 0.46994
 Zn223 Zn 0.00009 0.50023 0.50041
 N224 N 0.01939 0.48077 0.48137
 C225 C -0.01682 0.51841 0.45580
 N226 N -0.01812 0.51977 0.48039
 C227 C -0.03194 0.53576 0.49149
 C228 C -0.04565 0.55080 0.47775
 C229 C -0.03025 0.53314 0.44138
 C230 C -0.00866 0.46472 0.53381
 C231 C -0.02196 0.44971 0.54806
 C232 C -0.05671 0.46743 0.53188
 C233 C -0.04277 0.48212 0.51794
 N234 N -0.01919 0.48072 0.51937
 H235 H -0.00532 0.50602 0.44729
 H236 H -0.03234 0.53672 0.51106
 H237 H -0.05675 0.56335 0.48672
 H238 H -0.02923 0.53187 0.42182
 H239 H 0.01012 0.46372 0.53430
 H240 H -0.01345 0.43714 0.55965
 H241 H -0.07546 0.46872 0.53074
 H242 H -0.05084 0.49450 0.50592
 C243 C 0.04644 0.45133 0.45344
 C244 C 0.04516 0.54922 0.54850
 C245 C -0.04620 0.45115 0.54714
 C246 C -0.04485 0.54940 0.45247
 C247 C 0.53214 0.03589 0.50881
 H248 H 0.53254 0.03691 0.48925
 C249 C 0.54593 0.05082 0.52262
 H250 H 0.55708 0.06335 0.51370
 C251 C 0.51699 0.01847 0.54442
 H252 H 0.50547 0.00608 0.55287
 C253 C 0.53050 0.03309 0.55891
 H254 H 0.52951 0.03174 0.57846
 N255 N 0.51828 0.01990 0.51983
 C256 C 0.50891 -0.03503 0.46618
 H257 H 0.49014 -0.03602 0.46563
 C258 C 0.52226 -0.04999 0.45188
 H259 H 0.51378 -0.06251 0.44020
 C260 C 0.54298 -0.01768 0.48224
 H261 H 0.55101 -0.00533 0.49434
 C262 C 0.55696 -0.03232 0.46826
 H263 H 0.57571 -0.03102 0.46946
 Zn264 Zn 0.50008 0.00042 0.49972
 N265 N 0.51940 -0.01907 0.48073
 C266 C 0.48322 0.01856 0.45507
 N267 N 0.48192 0.01996 0.47966
 C268 C 0.46809 0.03596 0.49072
 C269 C 0.45436 0.05096 0.47695
 C270 C 0.46976 0.03324 0.44062
 C271 C 0.49123 -0.03506 0.53313
 C272 C 0.47787 -0.05003 0.54738
 C273 C 0.44318 -0.03227 0.53110
 C274 C 0.45717 -0.01763 0.51716
 N275 N 0.48075 -0.01906 0.51865
 H276 H 0.49471 0.00616 0.44658
 H277 H 0.46769 0.03695 0.51029
 H278 H 0.44325 0.06352 0.48591
 H279 H 0.47077 0.03193 0.42107
 H280 H 0.50999 -0.03609 0.53366
 H281 H 0.48634 -0.06259 0.55901
 H282 H 0.42443 -0.03094 0.52993
 H283 H 0.44914 -0.00525 0.50512
 C284 C 0.54650 -0.04854 0.45289
 C285 C 0.54517 0.04932 0.54789
 C286 C 0.45363 -0.04854 0.54641
 C287 C 0.45514 0.04951 0.45168
 C288 C 0.53220 0.53503 0.00924
 H289 H 0.53265 0.53613 -0.01032
 C290 C 0.54600 0.54987 0.02315
 H291 H 0.55720 0.56240 0.01432
 C292 C 0.51694 0.51749 0.04473
 H293 H 0.50537 0.50510 0.05309
 C294 C 0.53045 0.53201 0.05932
 H295 H 0.52942 0.53058 0.07886
 N296 N 0.51828 0.51903 0.02015
 C297 C 0.50895 0.46435 -0.03379
 H298 H 0.49018 0.46341 -0.03442
 C299 C 0.52231 0.44940 -0.04808
 H300 H 0.51385 0.43694 -0.05984
 C301 C 0.54299 0.48154 -0.01749
 H302 H 0.55102 0.49381 -0.00530
 C303 C 0.55699 0.46691 -0.03147
 H304 H 0.57574 0.46814 -0.03018
 Zn305 Zn 0.50009 0.49968 -0.00011
 N306 N 0.51942 0.48022 -0.01912
 C307 C 0.48340 0.51806 -0.04473
 N308 N 0.48204 0.51936 -0.02013
 C309 C 0.46824 0.53536 -0.00903
 C310 C 0.45459 0.55047 -0.02276
 C311 C 0.47003 0.53286 -0.05914
 C312 C 0.49103 0.46408 0.03311
 C313 C 0.47759 0.44907 0.04723
 C314 C 0.44300 0.46699 0.03090
 C315 C 0.45708 0.48166 0.01709
 N316 N 0.48065 0.48017 0.01866
 H317 H 0.49488 0.50566 -0.05324
 H318 H 0.46779 0.53626 0.01055
 H319 H 0.44351 0.56302 -0.01377
 H320 H 0.47108 0.53164 -0.07870
 H321 H 0.50980 0.46300 0.03370
 H322 H 0.48599 0.43644 0.05882
 H323 H 0.42426 0.46837 0.02966
 H324 H 0.44912 0.49412 0.00507
 C325 C 0.54655 0.45077 -0.04695
 C326 C 0.54518 0.54826 0.04842
 C327 C 0.45336 0.45062 0.04616
 C328 C 0.45544 0.54913 -0.04804
 C329 C 0.18608 -0.18928 -0.18833
 C330 C 0.17348 -0.17731 -0.17611
 C331 C 0.15859 -0.16285 -0.16154
 C332 C 0.14312 -0.17290 -0.14501
 C333 C 0.12879 -0.15882 -0.13072
 C334 C 0.12979 -0.13447 -0.13278
 C335 C 0.14536 -0.12456 -0.14951
 C336 C 0.15965 -0.13867 -0.16378
 C337 C 0.11473 -0.11947 -0.11749
 C338 C 0.12354 -0.09887 -0.10728
 C339 C 0.10937 -0.08471 -0.09294
 C340 C 0.08622 -0.09091 -0.08861
 C341 C 0.07728 -0.11137 -0.09866
 C342 C 0.09143 -0.12557 -0.11299
 C343 C 0.07167 -0.07622 -0.07392
 C344 C 0.05960 -0.06379 -0.06162
 H345 H 0.14221 -0.19160 -0.14308
 H346 H 0.11720 -0.16696 -0.11781
 H347 H 0.14631 -0.10590 -0.15176
 H348 H 0.17152 -0.13072 -0.17657
 H349 H 0.14147 -0.09386 -0.11012
 H350 H 0.11648 -0.06894 -0.08519
 H351 H 0.05936 -0.11629 -0.09548
 H352 H 0.08407 -0.14116 -0.12084
 C353 C 0.18569 0.31031 0.31107
 C354 C 0.17322 0.32234 0.32337
 C355 C 0.15848 0.33685 0.33805
 C356 C 0.14295 0.32685 0.35455
 C357 C 0.12878 0.34098 0.36895
 C358 C 0.12999 0.36533 0.36703
 C359 C 0.14562 0.37519 0.35032
 C360 C 0.15975 0.36103 0.33594
 C361 C 0.11509 0.38039 0.38243
 C362 C 0.12411 0.40085 0.39275
 C363 C 0.11009 0.41507 0.40720
 C364 C 0.08689 0.40905 0.41153
 C365 C 0.07775 0.38873 0.40139
 C366 C 0.09175 0.37447 0.38694
 C367 C 0.07249 0.42380 0.42632
 C368 C 0.06055 0.43628 0.43869
 H369 H 0.14188 0.30815 0.35638
 H370 H 0.11714 0.33288 0.38184
 H371 H 0.14673 0.39385 0.34818
 H372 H 0.17167 0.36894 0.32317
 H373 H 0.14208 0.40572 0.38990
 H374 H 0.11735 0.43073 0.41502
 H375 H 0.05980 0.38394 0.40457
 H376 H 0.08423 0.35899 0.37902
 C377 C 0.68625 -0.18949 0.31097
 C378 C 0.67373 -0.17748 0.32323
 C379 C 0.65894 -0.16298 0.33786
 C380 C 0.66152 -0.13882 0.33722
 C381 C 0.64734 -0.12468 0.35157
 C382 C 0.63035 -0.13453 0.36677
 C383 C 0.62784 -0.15884 0.36723
 C384 C 0.64206 -0.17296 0.35287
 C385 C 0.61539 -0.11950 0.38214
 C386 C 0.59158 -0.12441 0.38496
 C387 C 0.57752 -0.11016 0.39936
 C388 C 0.58706 -0.09086 0.41113
 C389 C 0.61073 -0.08586 0.40849
 C390 C 0.62481 -0.10007 0.39410
 C391 C 0.57261 -0.07611 0.42586
 C392 C 0.56063 -0.06361 0.43818
 H393 H 0.67449 -0.13091 0.32562
 H394 H 0.64948 -0.10602 0.35056
 H395 H 0.61512 -0.16696 0.37896
 H396 H 0.63997 -0.19165 0.35356
 H397 H 0.58375 -0.13906 0.37576
 H398 H 0.55920 -0.11414 0.40123
 H399 H 0.61831 -0.07100 0.41758
 H400 H 0.64313 -0.09601 0.39256
 C401 C 0.68674 0.30968 -0.18825
 C402 C 0.67417 0.32170 -0.17605
 C403 C 0.65933 0.33621 -0.16149
 C404 C 0.64308 0.32622 -0.14576
 C405 C 0.62880 0.34036 -0.13148
 C406 C 0.63062 0.36470 -0.13275
 C407 C 0.64698 0.37457 -0.14868
 C408 C 0.66122 0.36040 -0.16295
 C409 C 0.61562 0.37976 -0.11746
 C410 C 0.62478 0.39977 -0.10634
 C411 C 0.61066 0.41399 -0.09202
 C412 C 0.58721 0.40844 -0.08860
 C413 C 0.57792 0.38857 -0.09954
 C414 C 0.59202 0.37430 -0.11387
 C415 C 0.57271 0.42319 -0.07392
 C416 C 0.56071 0.43569 -0.06163
 H417 H 0.64152 0.30751 -0.14444
 H418 H 0.61658 0.33224 -0.11918
 H419 H 0.64859 0.39324 -0.15032
 H420 H 0.67370 0.36832 -0.17512
 H421 H 0.64294 0.40427 -0.10848
 H422 H 0.61804 0.42930 -0.08357
 H423 H 0.55977 0.38415 -0.09707
 H424 H 0.58439 0.35919 -0.12242
 C425 C -0.18642 0.19104 -0.18803
 C426 C -0.17386 0.17906 -0.17580
 C427 C -0.15897 0.16469 -0.16121
 C428 C -0.16575 0.15843 -0.13775
 C429 C -0.15140 0.14430 -0.12362
 C430 C -0.13005 0.13620 -0.13280
 C431 C -0.12337 0.14264 -0.15639
 C432 C -0.13774 0.15679 -0.17049
 C433 C -0.11490 0.12100 -0.11787
 C434 C -0.10330 0.10198 -0.12840
 C435 C -0.08923 0.08754 -0.11429
 C436 C -0.08654 0.09192 -0.08952
 C437 C -0.09793 0.11084 -0.07888
 C438 C -0.11203 0.12529 -0.09295
 C439 C -0.07224 0.07691 -0.07497
 C440 C -0.06033 0.06426 -0.06279
 H441 H -0.18219 0.16439 -0.13043
 H442 H -0.15718 0.13940 -0.10566
 H443 H -0.10691 0.13694 -0.16385
 H444 H -0.13230 0.16158 -0.18861
 H445 H -0.10540 0.09804 -0.14746
 H446 H -0.08054 0.07290 -0.12269
 H447 H -0.09593 0.11442 -0.05973
 H448 H -0.12048 0.13996 -0.08438
 C449 C -0.18520 0.69115 0.31264
 C450 C -0.17262 0.67924 0.32489
 C451 C -0.15769 0.66493 0.33952
 C452 C -0.16479 0.65810 0.36270
 C453 C -0.15043 0.64400 0.37685
 C454 C -0.12874 0.63651 0.36797
 C455 C -0.12174 0.64352 0.34465
 C456 C -0.13614 0.65764 0.33054
 C457 C -0.11358 0.62133 0.38289
 C458 C -0.10141 0.60273 0.37223
 C459 C -0.08733 0.58830 0.38633
 C460 C -0.08521 0.59226 0.41125
 C461 C -0.09717 0.61075 0.42202
 C462 C -0.11127 0.62519 0.40796
 C463 C -0.07090 0.57724 0.42578
 C464 C -0.05899 0.56459 0.43795
 H465 H -0.18149 0.66358 0.36979
 H466 H -0.15645 0.63865 0.39458
 H467 H -0.10504 0.63830 0.33743
 H468 H -0.13045 0.66287 0.31263
 H469 H -0.10307 0.59912 0.35306
 H470 H -0.07821 0.57399 0.37783
 H471 H -0.09560 0.61399 0.44129
 H472 H -0.12017 0.63953 0.41664
 C473 C 0.31381 0.19045 0.31203
 C474 C 0.32646 0.17855 0.32423
 C475 C 0.34146 0.16428 0.33880
 C476 C 0.33447 0.15745 0.36202
 C477 C 0.34894 0.14343 0.37614
 C478 C 0.37063 0.13603 0.36719
 C479 C 0.37752 0.14303 0.34384
 C480 C 0.36302 0.15706 0.32975
 C481 C 0.38592 0.12096 0.38210
 C482 C 0.39815 0.10240 0.37144
 C483 C 0.41235 0.08808 0.38554
 C484 C 0.41454 0.09211 0.41044
 C485 C 0.40251 0.11056 0.42120
 C486 C 0.38829 0.12490 0.40715
 C487 C 0.42895 0.07719 0.42496
 C488 C 0.44094 0.06461 0.43714
 H489 H 0.31778 0.16288 0.36916
 H490 H 0.34301 0.13809 0.39390
 H491 H 0.39423 0.13787 0.33656
 H492 H 0.36863 0.16229 0.31182
 H493 H 0.39645 0.09873 0.35229
 H494 H 0.42152 0.07379 0.37704
 H495 H 0.40413 0.11386 0.44045
 H496 H 0.37935 0.13922 0.41582
 C497 C 0.31476 0.69124 -0.18709
 C498 C 0.32740 0.67930 -0.17493
 C499 C 0.34239 0.66495 -0.16042
 C500 C 0.36305 0.65618 -0.17021
 C501 C 0.37750 0.64202 -0.15621
 C502 C 0.37145 0.63645 -0.13219
 C503 C 0.35067 0.64543 -0.12250
 C504 C 0.33625 0.65957 -0.13654
 C505 C 0.38666 0.62123 -0.11736
 C506 C 0.39052 0.62612 -0.09270
 C507 C 0.40465 0.61164 -0.07871
 C508 C 0.41510 0.59209 -0.08915
 C509 C 0.41143 0.58711 -0.11367
 C510 C 0.39732 0.60157 -0.12770
 C511 C 0.42942 0.57704 -0.07467
 C512 C 0.44133 0.56436 -0.06254
 H513 H 0.36799 0.66027 -0.18867
 H514 H 0.39351 0.63563 -0.16408
 H515 H 0.34538 0.64122 -0.10419
 H516 H 0.32025 0.66621 -0.12881
 H517 H 0.38280 0.64127 -0.08430
 H518 H 0.40742 0.61568 -0.05976
 H519 H 0.41938 0.57197 -0.12191
 H520 H 0.39444 0.59716 -0.14653
 C521 C -0.18675 -0.19162 0.18735
 C522 C -0.17436 -0.17950 0.17509
 C523 C -0.15969 -0.16487 0.16048
 C524 C -0.15855 -0.14101 0.16514
 C525 C -0.14446 -0.12671 0.15087
 C526 C -0.13131 -0.13612 0.13172
 C527 C -0.13253 -0.16016 0.12723
 C528 C -0.14665 -0.17442 0.14152
 C529 C -0.11647 -0.12091 0.11646
 C530 C -0.09425 -0.12828 0.10901
 C531 C -0.08029 -0.11388 0.09470
 C532 C -0.08833 -0.09197 0.08763
 C533 C -0.11041 -0.08450 0.09491
 C534 C -0.12439 -0.09885 0.10922
 C535 C -0.07396 -0.07710 0.07298
 C536 C -0.06202 -0.06452 0.06073
 H537 H -0.16853 -0.13345 0.17981
 H538 H -0.14366 -0.10834 0.15499
 H539 H -0.12284 -0.16788 0.11244
 H540 H -0.14746 -0.19287 0.13771
 H541 H -0.08755 -0.14503 0.11452
 H542 H -0.06319 -0.11980 0.08922
 H543 H -0.11684 -0.06760 0.08948
 H544 H -0.14152 -0.09282 0.11438
 C545 C -0.18494 0.30851 0.68805
 C546 C -0.17250 0.32069 0.67589
 C547 C -0.15779 0.33536 0.66139
 C548 C -0.15670 0.35922 0.66611
 C549 C -0.14261 0.37357 0.65190
 C550 C -0.12939 0.36422 0.63277
 C551 C -0.13054 0.34019 0.62824
 C552 C -0.14466 0.32587 0.64246
 C553 C -0.11456 0.37950 0.61756
 C554 C -0.09232 0.37220 0.61012
 C555 C -0.07839 0.38663 0.59582
 C556 C -0.08650 0.40852 0.58875
 C557 C -0.10860 0.41592 0.59602
 C558 C -0.12255 0.40153 0.61033
 C559 C -0.07218 0.42341 0.57406
 C560 C -0.06028 0.43599 0.56178
 H561 H -0.16674 0.36674 0.68076
 H562 H -0.14185 0.39194 0.65606
 H563 H -0.12080 0.33252 0.61346
 H564 H -0.14544 0.30743 0.63861
 H565 H -0.08557 0.35546 0.61564
 H566 H -0.06128 0.38076 0.59035
 H567 H -0.11507 0.43280 0.59058
 H568 H -0.13970 0.40752 0.61547
 C569 C 0.31430 -0.19033 0.68761
 C570 C 0.32676 -0.17822 0.67541
 C571 C 0.34152 -0.16364 0.66086
 C572 C 0.34268 -0.13977 0.66550
 C573 C 0.35684 -0.12551 0.65126
 C574 C 0.37004 -0.13496 0.63217
 C575 C 0.36880 -0.15900 0.62770
 C576 C 0.35461 -0.17323 0.64196
 C577 C 0.38494 -0.11979 0.61692
 C578 C 0.40716 -0.12719 0.60953
 C579 C 0.42116 -0.11285 0.59521
 C580 C 0.41315 -0.09095 0.58807
 C581 C 0.39107 -0.08344 0.59529
 C582 C 0.37705 -0.09774 0.60962
 C583 C 0.42754 -0.07615 0.57337
 C584 C 0.43950 -0.06363 0.56107
 H585 H 0.33266 -0.13217 0.68012
 H586 H 0.35766 -0.10714 0.65536
 H587 H 0.37852 -0.16675 0.61296
 H588 H 0.35378 -0.19168 0.63817
 H589 H 0.41383 -0.14394 0.61511
 H590 H 0.43825 -0.11881 0.58978
 H591 H 0.38467 -0.06655 0.58980
 H592 H 0.35991 -0.09167 0.61472
 C593 C 0.31343 0.30871 0.18660
 C594 C 0.32589 0.32082 0.17439
 C595 C 0.34065 0.33542 0.15986
 C596 C 0.34020 0.35953 0.16301
 C597 C 0.35439 0.37378 0.14882
 C598 C 0.36925 0.36409 0.13125
 C599 C 0.36962 0.33981 0.12826
 C600 C 0.35540 0.32559 0.14247
 C601 C 0.38422 0.37925 0.11607
 C602 C 0.40724 0.37277 0.11064
 C603 C 0.42133 0.38713 0.09642
 C604 C 0.41261 0.40811 0.08742
 C605 C 0.38973 0.41468 0.09267
 C606 C 0.37563 0.40037 0.10690
 C607 C 0.42710 0.42294 0.07286
 C608 C 0.43913 0.43549 0.06068
 H609 H 0.32889 0.36731 0.17647
 H610 H 0.35393 0.39237 0.15178
 H611 H 0.38065 0.33185 0.11469
 H612 H 0.35583 0.30694 0.13983
 H613 H 0.41445 0.35677 0.11768
 H614 H 0.43903 0.38191 0.09252
 H615 H 0.38279 0.43085 0.08574
 H616 H 0.35790 0.40569 0.11047
 C617 C 0.18470 0.18930 0.18863
 C618 C 0.17194 0.17747 0.17648
 C619 C 0.15680 0.16325 0.16196
 C620 C 0.15950 0.16262 0.13677
 C621 C 0.14498 0.14862 0.12266
 C622 C 0.12755 0.13503 0.13359
 C623 C 0.12494 0.13585 0.15894
 C624 C 0.13948 0.14988 0.17301
 C625 C 0.11230 0.11994 0.11864
 C626 C 0.10631 0.09751 0.12660
 C627 C 0.09214 0.08322 0.11241
 C628 C 0.08376 0.09115 0.09011
 C629 C 0.08955 0.11346 0.08206
 C630 C 0.10373 0.12777 0.09621
 C631 C 0.06939 0.07632 0.07542
 C632 C 0.05744 0.06382 0.06310
 H633 H 0.17291 0.17285 0.12804
 H634 H 0.14763 0.14814 0.10324
 H635 H 0.11151 0.12583 0.16785
 H636 H 0.13720 0.15028 0.19249
 H637 H 0.11288 0.09086 0.14361
 H638 H 0.08783 0.06595 0.11877
 H639 H 0.08311 0.11979 0.06485
 H640 H 0.10778 0.14505 0.08973
 C641 C 0.18631 0.68974 0.68901
 C642 C 0.17376 0.67784 0.67670
 C643 C 0.15891 0.66352 0.66198
 C644 C 0.16863 0.64723 0.64611
 C645 C 0.15425 0.63324 0.63183
 C646 C 0.12992 0.63535 0.63326
 C647 C 0.12032 0.65180 0.64928
 C648 C 0.13473 0.66579 0.66352
 C649 C 0.11465 0.62041 0.61817
 C650 C 0.09419 0.61080 0.62791
 C651 C 0.07996 0.59654 0.61375
 C652 C 0.08597 0.59172 0.58970
 C653 C 0.10623 0.60126 0.57981
 C654 C 0.12049 0.61551 0.59393
 C655 C 0.07147 0.57683 0.57521
 C656 C 0.05942 0.56429 0.56304
 H657 H 0.18732 0.64528 0.64483
 H658 H 0.16217 0.62053 0.61994
 H659 H 0.10167 0.65405 0.65057
 H660 H 0.12703 0.67840 0.67571
 H661 H 0.08937 0.61400 0.64659
 H662 H 0.06435 0.58918 0.62161
 H663 H 0.11102 0.59768 0.56119
 H664 H 0.13596 0.62288 0.58582
 C665 C 0.68679 0.18887 0.68894
 C666 C 0.67421 0.17705 0.67659
 C667 C 0.65930 0.16284 0.66180
 C668 C 0.66896 0.14646 0.64598
 C669 C 0.65453 0.13258 0.63165
 C670 C 0.63021 0.13490 0.63296
 C671 C 0.62067 0.15143 0.64892
 C672 C 0.63514 0.16531 0.66323
 C673 C 0.61489 0.12007 0.61780
 C674 C 0.59430 0.11064 0.62745
 C675 C 0.58002 0.09648 0.61324
 C676 C 0.58610 0.09159 0.58921
 C677 C 0.60648 0.10097 0.57942
 C678 C 0.62079 0.11511 0.59360
 C679 C 0.57155 0.07680 0.57467
 C680 C 0.55946 0.06432 0.56247
 H681 H 0.68764 0.14436 0.64479
 H682 H 0.66240 0.11980 0.61979
 H683 H 0.60204 0.15383 0.65012
 H684 H 0.62749 0.17798 0.67537
 H685 H 0.58943 0.11389 0.64610
 H686 H 0.56432 0.08925 0.62102
 H687 H 0.61132 0.09734 0.56082
 H688 H 0.63636 0.12236 0.58555
 C689 C 0.68625 0.68875 0.18908
 C690 C 0.67367 0.67670 0.17696
 C691 C 0.65879 0.66219 0.16248
 C692 C 0.64123 0.67212 0.14834
 C693 C 0.62687 0.65801 0.13415
 C694 C 0.62993 0.63375 0.13391
 C695 C 0.64761 0.62395 0.14823
 C696 C 0.66193 0.63809 0.16241
 C697 C 0.61482 0.61874 0.11872
 C698 C 0.62427 0.59981 0.10592
 C699 C 0.61005 0.58565 0.09167
 C700 C 0.58621 0.59019 0.09001
 C701 C 0.57663 0.60898 0.10264
 C702 C 0.59083 0.62319 0.11690
 C703 C 0.57162 0.57553 0.07537
 C704 C 0.55950 0.56315 0.06309
 H705 H 0.63869 0.69077 0.14821
 H706 H 0.61361 0.66610 0.12310
 H707 H 0.65020 0.60533 0.14868
 H708 H 0.67543 0.63022 0.17334
 H709 H 0.64271 0.59612 0.10669
 H710 H 0.61765 0.57118 0.08191
 H711 H 0.55819 0.61262 0.10153
 H712 H 0.58299 0.63745 0.12676
   
