data_POSCAR
  _audit_creation_date              2014-09-24
  _audit_creation_method            'ToBaCCo'
  _symmetry_space_group_name_H-M    'P1'
  _symmetry_Int_Tables_number       1
  _symmetry_cell_setting            triclinic
  loop_
  _symmetry_equiv_pos_as_xyz
 x,y,z
_cell_length_a 41.6581
_cell_length_b 41.6311
_cell_length_c 41.6848
_cell_angle_alpha 89.963000
_cell_angle_beta 90.000200
_cell_angle_gamma 89.926000
loop_
  _atom_site_label
  _atom_site_type_symbol
  _atom_site_fract_x
  _atom_site_fract_y
  _atom_site_fract_z
O1 O 0.27669 1.03158 0.46924
 O2 O 0.27651 0.96904 0.53172
 O3 O 0.27654 0.96898 0.46920
 O4 O 0.27665 1.03164 0.53177
 O5 O 0.22357 1.03183 0.53174
 O6 O 0.22346 0.96917 0.46918
 O7 O 0.22342 0.96923 0.53170
 O8 O 0.22360 1.03177 0.46921
 Cu9 Cu 0.28194 1.00029 0.50049
 Cu10 Cu 0.21817 1.00052 0.50046
 C11 C 0.25017 1.04222 0.45867
 C12 C 0.24994 0.95857 0.54225
 C13 C 0.24998 0.95850 0.45862
 C14 C 0.25013 1.04232 0.54232
 O15 O 0.72304 -0.03173 0.46946
 O16 O 0.72323 0.03075 0.53185
 O17 O 0.72312 0.03083 0.46938
 O18 O 0.72314 -0.03182 0.53195
 O19 O 0.77622 -0.03196 0.53187
 O20 O 0.77621 0.03069 0.46929
 O21 O 0.77632 0.03061 0.53177
 O22 O 0.77613 -0.03187 0.46937
 Cu23 Cu 0.71778 -0.00048 0.50067
 Cu24 Cu 0.78158 -0.00065 0.50057
 C25 C 0.74955 -0.04233 0.45888
 C26 C 0.74980 0.04123 0.54233
 C27 C 0.74966 0.04134 0.45877
 C28 C 0.74968 -0.04247 0.54249
 O29 O 0.27669 0.46784 0.96921
 O30 O 0.27672 0.53036 1.03165
 O31 O 0.27677 0.46779 1.03170
 O32 O 0.27664 0.53040 0.96918
 O33 O 0.22355 0.53042 0.96925
 O34 O 0.22369 0.46781 1.03177
 O35 O 0.22363 0.53038 1.03172
 O36 O 0.22360 0.46787 0.96928
 Cu37 Cu 0.28206 0.49909 1.00043
 Cu38 Cu 0.21826 0.49912 1.00051
 C39 C 0.25014 0.45732 0.95870
 C40 C 0.25017 0.54093 1.04221
 C41 C 0.25026 0.45723 1.04230
 C42 C 0.25007 0.54098 0.95866
 O43 O 0.46957 0.27637 1.03154
 O44 O 0.53205 0.27637 0.96916
 O45 O 0.46952 0.27628 0.96905
 O46 O 0.53211 0.27643 1.03168
 O47 O 0.53224 0.22333 1.03177
 O48 O 0.46965 0.22316 0.96915
 O49 O 0.53219 0.22324 0.96926
 O50 O 0.46970 0.22324 1.03164
 Cu51 Cu 0.50080 0.28172 1.00035
 Cu52 Cu 0.50096 0.21789 1.00047
 C53 C 0.45908 0.24980 1.04211
 C54 C 0.54265 0.24981 0.95867
 C55 C 0.45901 0.24969 0.95852
 C56 C 0.54275 0.24991 1.04231
 O57 O 0.46941 0.72329 -0.03177
 O58 O 0.53187 0.72349 0.03064
 O59 O 0.46934 0.72335 0.03072
 O60 O 0.53196 0.72343 -0.03187
 O61 O 0.53178 0.77654 -0.03196
 O62 O 0.46915 0.77646 0.03064
 O63 O 0.53169 0.77661 0.03056
 O64 O 0.46923 0.77642 -0.03185
 Cu65 Cu 0.50067 0.71804 -0.00057
 Cu66 Cu 0.50045 0.78186 -0.00066
 C67 C 0.45877 0.74982 -0.04233
 C68 C 0.54231 0.75008 0.04114
 C69 C 0.45867 0.74989 0.04125
 C70 C 0.54245 0.75000 -0.04250
 O71 O 1.03177 0.46929 0.27623
 O72 O 0.96926 0.53183 0.27628
 O73 O 0.96922 0.46924 0.27626
 O74 O 1.03181 0.53187 0.27626
 O75 O 1.03179 0.53193 0.22322
 O76 O 0.96920 0.46930 0.22321
 O77 O 0.96924 0.53188 0.22322
 O78 O 1.03174 0.46935 0.22317
 Cu79 Cu 1.00052 0.50055 0.28160
 Cu80 Cu 1.00049 0.50062 0.21786
 C81 C 1.04230 0.45877 0.24969
 C82 C 0.95870 0.54240 0.24976
 C83 C 0.95865 0.45869 0.24973
 C84 C 1.04238 0.54248 0.24974
 O85 O -0.03183 0.46938 0.72334
 O86 O 0.03061 0.53182 0.72358
 O87 O 0.03071 0.46924 0.72347
 O88 O -0.03194 0.53197 0.72347
 O89 O -0.03204 0.53185 0.77651
 O90 O 0.03061 0.46911 0.77651
 O91 O 0.03051 0.53169 0.77663
 O92 O -0.03193 0.46926 0.77640
 Cu93 Cu -0.00060 0.50062 0.71812
 Cu94 Cu -0.00072 0.50047 0.78186
 C95 C -0.04240 0.45878 0.74983
 C96 C 0.04111 0.54228 0.75014
 C97 C 0.04124 0.45858 0.74999
 C98 C -0.04257 0.54251 0.74998
 O99 O 0.46793 0.96930 0.27641
 O100 O 0.53040 1.03178 0.27655
 O101 O 0.46790 1.03186 0.27645
 O102 O 0.53043 0.96924 0.27650
 O103 O 0.53050 0.96931 0.22345
 O104 O 0.46797 1.03193 0.22340
 O105 O 0.53048 1.03185 0.22349
 O106 O 0.46800 0.96937 0.22336
 Cu107 Cu 0.49915 1.00054 0.28184
 Cu108 Cu 0.49924 1.00063 0.21806
 C109 C 0.45743 0.95879 0.24986
 C110 C 0.54099 1.04235 0.25004
 C111 C 0.45738 1.04247 0.24992
 C112 C 0.54102 0.95871 0.24998
 O113 O 1.03144 0.27655 0.53098
 O114 O 0.96893 0.27657 0.46854
 O115 O 0.96894 0.27654 0.53100
 O116 O 1.03143 0.27661 0.46852
 O117 O 1.03152 0.22348 0.46851
 O118 O 0.96903 0.22341 0.53100
 O119 O 0.96902 0.22345 0.46854
 O120 O 1.03153 0.22343 0.53098
 Cu121 Cu 1.00018 0.28193 0.49976
 Cu122 Cu 1.00029 0.21808 0.49976
 C123 C 1.04203 0.24998 0.54152
 C124 C 0.95842 0.25001 0.45801
 C125 C 0.95844 0.24996 0.54154
 C126 C 1.04203 0.25006 0.45797
 O127 O -0.03134 0.72338 0.53128
 O128 O 0.03118 0.72332 0.46885
 O129 O 0.03116 0.72334 0.53132
 O130 O -0.03132 0.72336 0.46882
 O131 O -0.03135 0.77649 0.46877
 O132 O 0.03113 0.77647 0.53127
 O133 O 0.03115 0.77644 0.46880
 O134 O -0.03137 0.77651 0.53122
 Cu135 Cu -0.00007 0.71798 0.50007
 Cu136 Cu -0.00011 0.78184 0.50001
 C137 C -0.04191 0.74996 0.54178
 C138 C 0.04171 0.74987 0.45828
 C139 C 0.04168 0.74990 0.54185
 C140 C -0.04189 0.74993 0.45825
 O141 O 0.72361 0.46886 1.03119
 O142 O 0.72360 0.53138 0.96876
 O143 O 0.72359 0.46886 0.96874
 O144 O 0.72362 0.53139 1.03119
 O145 O 0.77672 0.53131 1.03118
 O146 O 0.77668 0.46879 0.96872
 O147 O 0.77669 0.53131 0.96874
 O148 O 0.77671 0.46879 1.03117
 Cu149 Cu 0.71824 0.50013 0.99997
 Cu150 Cu 0.78207 0.50004 0.99995
 C151 C 0.75016 0.45828 1.04171
 C152 C 0.75014 0.54189 0.95821
 C153 C 0.75013 0.45828 0.95819
 C154 C 0.75017 0.54191 1.04172
 O155 O 0.46808 1.03181 0.72343
 O156 O 0.53061 0.96923 0.72351
 O157 O 0.46812 0.96926 0.72351
 O158 O 0.53059 1.03176 0.72344
 O159 O 0.53059 1.03179 0.77650
 O160 O 0.46811 0.96929 0.77657
 O161 O 0.53061 0.96926 0.77656
 O162 O 0.46807 1.03184 0.77648
 Cu163 Cu 0.49935 1.00052 0.71811
 Cu164 Cu 0.49934 1.00056 0.78189
 C165 C 0.45752 1.04239 0.74993
 C166 C 0.54116 0.95869 0.75005
 C167 C 0.45758 0.95871 0.75006
 C168 C 0.54115 1.04231 0.74996
 C169 C 0.25047 0.22622 0.27374
 C170 C 0.22655 0.25019 0.27368
 C171 C 0.22657 0.27410 0.24972
 C172 C 0.25048 0.27406 0.22581
 C173 C 0.27440 0.25008 0.22588
 C174 C 0.27440 0.22616 0.24983
 C175 C 0.74965 0.77412 0.27395
 C176 C 0.77365 0.75024 0.27392
 C177 C 0.77376 0.72640 0.24993
 C178 C 0.74988 0.72643 0.22599
 C179 C 0.72590 0.75033 0.22603
 C180 C 0.72577 0.77419 0.25000
 C181 C 0.75007 0.22607 0.72596
 C182 C 0.77397 0.25000 0.72588
 C183 C 0.77396 0.27394 0.74976
 C184 C 0.75010 0.27395 0.77373
 C185 C 0.72622 0.25001 0.77378
 C186 C 0.72617 0.22608 0.74988
 C187 C 0.24976 0.77383 0.72645
 C188 C 0.22584 0.74992 0.72648
 C189 C 0.22587 0.72598 0.75041
 C190 C 0.24982 0.72590 0.77429
 C191 C 0.27374 0.74981 0.77423
 C192 C 0.27371 0.77379 0.75034
 C193 C 0.22629 0.24962 0.72597
 C194 C 0.25025 0.22565 0.72591
 C195 C 0.27419 0.22563 0.74985
 C196 C 0.27418 0.24953 0.77383
 C197 C 0.25017 0.27346 0.77385
 C198 C 0.22622 0.27354 0.74993
 C199 C 0.77373 0.75024 0.72611
 C200 C 0.74978 0.77422 0.72609
 C201 C 0.72586 0.77421 0.75004
 C202 C 0.72586 0.75028 0.77400
 C203 C 0.74985 0.72633 0.77397
 C204 C 0.77380 0.72627 0.75004
 C205 C 0.22593 0.74980 0.27381
 C206 C 0.24982 0.77379 0.27381
 C207 C 0.27373 0.77379 0.24984
 C208 C 0.27380 0.74983 0.22592
 C209 C 0.24990 0.72585 0.22598
 C210 C 0.22593 0.72583 0.24990
 C211 C 0.77377 0.25004 0.27396
 C212 C 0.77383 0.27397 0.25000
 C213 C 0.74988 0.27395 0.22608
 C214 C 0.72588 0.25007 0.22608
 C215 C 0.72586 0.22618 0.25008
 C216 C 0.74980 0.22614 0.27403
 C217 C 0.25035 0.11122 0.38938
 N218 N 0.27313 0.11110 0.36614
 N219 N 0.27317 0.13366 0.34344
 C220 C 0.25042 0.15699 0.34331
 N221 N 0.22764 0.15711 0.36655
 N222 N 0.22760 0.13456 0.38925
 C223 C 0.25029 0.08694 0.41380
 C224 C 0.25024 0.06652 0.43430
 C225 C 0.25046 0.18125 0.31890
 C226 C 0.25048 0.20165 0.29839
 C227 C 0.74942 0.88878 0.38966
 N228 N 0.72657 0.88885 0.36648
 N229 N 0.72658 0.86634 0.34377
 C230 C 0.74943 0.84312 0.34357
 N231 N 0.77228 0.84305 0.36674
 N232 N 0.77227 0.86556 0.38945
 C233 C 0.74944 0.91301 0.41405
 C234 C 0.74949 0.93340 0.43454
 C235 C 0.74946 0.81895 0.31914
 C236 C 0.74952 0.79861 0.29862
 C237 C 0.74998 0.11047 0.61119
 N238 N 0.77297 0.13350 0.61130
 N239 N 0.77300 0.15620 0.63382
 C240 C 0.75004 0.15653 0.65687
 N241 N 0.72704 0.13351 0.65676
 N242 N 0.72701 0.11081 0.63424
 C243 C 0.74993 0.08608 0.58696
 C244 C 0.74987 0.06558 0.56658
 C245 C 0.75007 0.18093 0.68107
 C246 C 0.75008 0.20143 0.70144
 C247 C 0.24980 0.88934 0.61131
 N248 N 0.22696 0.86614 0.61135
 N249 N 0.22694 0.84348 0.63394
 C250 C 0.24975 0.84333 0.65715
 N251 N 0.27258 0.86652 0.65711
 N252 N 0.27261 0.88919 0.63452
 C253 C 0.24983 0.91372 0.58700
 C254 C 0.24987 0.93421 0.56656
 C255 C 0.24973 0.81896 0.68144
 C256 C 0.24973 0.79847 0.70187
 C257 C 0.38985 0.24986 0.11098
 N258 N 0.38974 0.22704 0.13421
 N259 N 0.36706 0.22707 0.15675
 C260 C 0.34384 0.24993 0.15671
 N261 N 0.34395 0.27275 0.13349
 N262 N 0.36663 0.27272 0.11095
 C263 C 0.41424 0.24983 0.08674
 C264 C 0.43473 0.24981 0.06636
 C265 C 0.31948 0.24998 0.18095
 C266 C 0.29901 0.25003 0.20134
 C267 C 0.38947 0.74969 0.88887
 N268 N 0.38897 0.77282 0.86595
 N269 N 0.36624 0.77283 0.84347
 C270 C 0.34334 0.74970 0.84324
 N271 N 0.34384 0.72657 0.86616
 N272 N 0.36657 0.72657 0.88864
 C273 C 0.41389 0.74972 0.91307
 C274 C 0.43440 0.74976 0.93343
 C275 C 0.31892 0.74971 0.81907
 C276 C 0.29840 0.74974 0.79873
 C277 C 0.61116 0.75028 0.11039
 N278 N 0.61111 0.77319 0.13351
 N279 N 0.63362 0.77323 0.15622
 C280 C 0.65683 0.75036 0.15647
 N281 N 0.65689 0.72746 0.13336
 N282 N 0.63438 0.72742 0.11065
 C283 C 0.58694 0.75022 0.08599
 C284 C 0.56657 0.75016 0.06549
 C285 C 0.68102 0.75039 0.18088
 C286 C 0.70138 0.75039 0.20139
 C287 C 0.61151 0.24985 0.88943
 N288 N 0.61147 0.22706 0.86620
 N289 N 0.63398 0.22710 0.84349
 C290 C 0.65717 0.24992 0.84335
 N291 N 0.65721 0.27270 0.86658
 N292 N 0.63471 0.27267 0.88929
 C293 C 0.58729 0.24983 0.91384
 C294 C 0.56691 0.24981 0.93433
 C295 C 0.68136 0.24995 0.81894
 C296 C 0.70171 0.24998 0.79843
 C297 C 0.11139 0.38958 0.24966
 N298 N 0.13467 0.38957 0.22693
 N299 N 0.15728 0.36690 0.22693
 C300 C 0.15726 0.34359 0.24966
 N301 N 0.13398 0.34360 0.27240
 N302 N 0.11137 0.36627 0.27240
 C303 C 0.08707 0.41395 0.24966
 C304 C 0.06663 0.43443 0.24967
 C305 C 0.18156 0.31922 0.24966
 C306 C 0.20199 0.29874 0.24968
 C307 C 0.88872 0.38955 0.74966
 N308 N 0.86557 0.38933 0.77253
 N309 N 0.84306 0.36663 0.77252
 C310 C 0.84304 0.34349 0.74964
 N311 N 0.86618 0.34371 0.72677
 N312 N 0.88870 0.36641 0.72678
 C313 C 0.91295 0.41395 0.74970
 C314 C 0.93334 0.43443 0.74975
 C315 C 0.81885 0.31908 0.74965
 C316 C 0.79848 0.29858 0.74968
 C317 C 0.11032 0.61116 0.75035
 N318 N 0.13353 0.61107 0.77316
 N319 N 0.15623 0.63359 0.77320
 C320 C 0.15637 0.65687 0.75043
 N321 N 0.13316 0.65697 0.72762
 N322 N 0.11047 0.63444 0.72758
 C323 C 0.08594 0.58692 0.75029
 C324 C 0.06545 0.56654 0.75023
 C325 C 0.18076 0.68107 0.75046
 C326 C 0.20125 0.70145 0.75045
 C327 C 0.88945 0.61143 0.24979
 N328 N 0.86621 0.61143 0.22701
 N329 N 0.84350 0.63400 0.22703
 C330 C 0.84338 0.65722 0.24983
 N331 N 0.86662 0.65722 0.27261
 N332 N 0.88932 0.63465 0.27259
 C333 C 0.91385 0.58714 0.24978
 C334 C 0.93435 0.56671 0.24977
 C335 C 0.81897 0.68147 0.24985
 C336 C 0.79844 0.70186 0.24988
 C337 C 0.11112 0.24990 0.61063
 N338 N 0.11111 0.27265 0.63391
 N339 N 0.13370 0.27259 0.65654
 C340 C 0.15697 0.24978 0.65657
 N341 N 0.15699 0.22703 0.63330
 N342 N 0.13440 0.22709 0.61067
 C343 C 0.08680 0.24994 0.58629
 C344 C 0.06636 0.24997 0.56584
 C345 C 0.18126 0.24972 0.68092
 C346 C 0.20170 0.24967 0.70137
 C347 C 0.88897 0.75006 0.61086
 N348 N 0.88891 0.72725 0.63410
 N349 N 0.86629 0.72729 0.65671
 C350 C 0.84307 0.75015 0.65674
 N351 N 0.84313 0.77296 0.63351
 N352 N 0.86574 0.77292 0.61090
 C353 C 0.91330 0.75001 0.58653
 C354 C 0.93375 0.74998 0.56609
 C355 C 0.81874 0.75018 0.68105
 C356 C 0.79831 0.75021 0.70150
 C357 C 0.11078 0.74981 0.38915
 N358 N 0.11083 0.72699 0.36595
 N359 N 0.13342 0.72697 0.34331
 C360 C 0.15663 0.74978 0.34321
 N361 N 0.15659 0.77261 0.36641
 N362 N 0.13400 0.77262 0.38905
 C363 C 0.08647 0.74982 0.41351
 C364 C 0.06604 0.74984 0.43396
 C365 C 0.18092 0.74977 0.31887
 C366 C 0.20135 0.74978 0.29841
 C367 C 0.88919 0.25000 0.38903
 N368 N 0.88878 0.27311 0.36609
 N369 N 0.86612 0.27311 0.34352
 C370 C 0.84321 0.25000 0.34323
 N371 N 0.84362 0.22689 0.36617
 N372 N 0.86628 0.22689 0.38874
 C373 C 0.91358 0.25000 0.41331
 C374 C 0.93406 0.25001 0.43372
 C375 C 0.81885 0.25000 0.31896
 C376 C 0.79838 0.25001 0.29854
 C377 C 0.25009 0.38835 0.88946
 N378 N 0.22724 0.38838 0.86628
 N379 N 0.22724 0.36585 0.84359
 C380 C 0.25009 0.34262 0.84340
 N381 N 0.27295 0.34259 0.86657
 N382 N 0.27295 0.36512 0.88926
 C383 C 0.25011 0.41262 0.91386
 C384 C 0.25012 0.43302 0.93435
 C385 C 0.25010 0.31839 0.81900
 C386 C 0.25012 0.29800 0.79849
 C387 C 0.75011 0.38915 0.11077
 N388 N 0.72725 0.36599 0.11085
 N389 N 0.72721 0.34337 0.13347
 C390 C 0.75002 0.34325 0.15668
 N391 N 0.77288 0.36640 0.15660
 N392 N 0.77293 0.38902 0.13398
 C393 C 0.75015 0.41349 0.08645
 C394 C 0.75016 0.43394 0.06601
 C395 C 0.74995 0.31894 0.18100
 C396 C 0.74991 0.29851 0.20146
 C397 C 0.75007 0.61103 0.88917
 N398 N 0.77280 0.61103 0.86588
 N399 N 0.77276 0.63366 0.84327
 C400 C 0.74998 0.65696 0.84329
 N401 N 0.72725 0.65697 0.86657
 N402 N 0.72729 0.63434 0.88918
 C403 C 0.75011 0.58669 0.91348
 C404 C 0.75013 0.56623 0.93391
 C405 C 0.74993 0.68129 0.81899
 C406 C 0.74989 0.70174 0.79855
 C407 C 0.25014 0.61021 0.11113
 N408 N 0.27304 0.63334 0.11124
 N409 N 0.27300 0.65604 0.13376
 C410 C 0.25006 0.65628 0.15685
 N411 N 0.22716 0.63315 0.15675
 N412 N 0.22721 0.61045 0.13422
 C413 C 0.25017 0.58580 0.08688
 C414 C 0.25018 0.56530 0.06649
 C415 C 0.25001 0.68069 0.18108
 C416 C 0.24996 0.70120 0.20145
 C417 C 0.38963 0.11028 0.74986
 N418 N 0.36639 0.11033 0.72708
 N419 N 0.34374 0.13296 0.72706
 C420 C 0.34366 0.15621 0.74983
 N421 N 0.36690 0.15617 0.77262
 N422 N 0.38955 0.13353 0.77263
 C423 C 0.41401 0.08592 0.74987
 C424 C 0.43448 0.06545 0.74990
 C425 C 0.31930 0.18055 0.74982
 C426 C 0.29882 0.20101 0.74983
 C427 C 0.38852 0.88949 0.24976
 N428 N 0.36537 0.88925 0.27264
 N429 N 0.34286 0.86654 0.27264
 C430 C 0.34283 0.84340 0.24976
 N431 N 0.36597 0.84364 0.22688
 N432 N 0.38848 0.86635 0.22688
 C433 C 0.41277 0.91391 0.24978
 C434 C 0.43315 0.93442 0.24981
 C435 C 0.31861 0.81897 0.24977
 C436 C 0.29825 0.79845 0.24979
 C437 C 0.61024 0.11131 0.25015
 N438 N 0.61040 0.13455 0.22734
 N439 N 0.63309 0.15708 0.22735
 C440 C 0.65629 0.15704 0.25017
 N441 N 0.65614 0.13380 0.27299
 N442 N 0.63345 0.11127 0.27298
 C443 C 0.58584 0.08704 0.25013
 C444 C 0.56535 0.06664 0.25009
 C445 C 0.68070 0.18127 0.25017
 C446 C 0.70121 0.20165 0.25014
 C447 C 0.61039 0.88954 0.75007
 N448 N 0.63367 0.88957 0.72733
 N449 N 0.65633 0.86695 0.72732
 C450 C 0.65638 0.84362 0.75004
 N451 N 0.63310 0.84359 0.77278
 N452 N 0.61044 0.86621 0.77280
 C453 C 0.58600 0.91388 0.75008
 C454 C 0.56552 0.93434 0.75007
 C455 C 0.68074 0.81929 0.75002
 C456 C 0.70122 0.79883 0.75003
 C457 C 0.74970 0.88962 0.61050
 N458 N 0.72687 0.88957 0.63371
 N459 N 0.72688 0.86696 0.65637
 C460 C 0.74972 0.84371 0.65652
 N461 N 0.77255 0.84376 0.63332
 N462 N 0.77254 0.86637 0.61066
 C463 C 0.74968 0.91399 0.58607
 C464 C 0.74968 0.93447 0.56556
 C465 C 0.74972 0.81935 0.68093
 C466 C 0.74974 0.79887 0.70143
 C467 C 0.25038 0.38936 0.11025
 N468 N 0.22756 0.38930 0.13346
 N469 N 0.22759 0.36669 0.15612
 C470 C 0.25044 0.34346 0.15625
 N471 N 0.27327 0.34351 0.13304
 N472 N 0.27324 0.36612 0.11039
 C473 C 0.25035 0.41371 0.08585
 C474 C 0.25030 0.43418 0.06536
 C475 C 0.25046 0.31912 0.18063
 C476 C 0.25048 0.29867 0.20113
 C477 C 0.25023 0.11028 0.61029
 N478 N 0.27304 0.11027 0.63354
 N479 N 0.27306 0.13287 0.65618
 C480 C 0.25028 0.15619 0.65630
 N481 N 0.22748 0.15620 0.63306
 N482 N 0.22746 0.13360 0.61041
 C483 C 0.25020 0.08590 0.58588
 C484 C 0.25016 0.06541 0.56539
 C485 C 0.25029 0.18055 0.68072
 C486 C 0.25028 0.20101 0.70122
 C487 C 0.24988 0.88923 0.38933
 N488 N 0.22707 0.86600 0.38925
 N489 N 0.22705 0.84338 0.36661
 C490 C 0.24983 0.84331 0.34335
 N491 N 0.27263 0.86654 0.34343
 N492 N 0.27265 0.88915 0.36607
 C493 C 0.24990 0.91362 0.41375
 C494 C 0.24993 0.93410 0.43424
 C495 C 0.24981 0.81893 0.31895
 C496 C 0.24980 0.79845 0.29846
 C497 C 0.74968 0.11066 0.38954
 N498 N 0.77267 0.13371 0.38928
 N499 N 0.77269 0.15635 0.36665
 C500 C 0.74972 0.15664 0.34358
 N501 N 0.72673 0.13359 0.34384
 N502 N 0.72671 0.11095 0.36647
 C503 C 0.74966 0.08625 0.41393
 C504 C 0.74965 0.06575 0.43440
 C505 C 0.74974 0.18103 0.31920
 C506 C 0.74976 0.20150 0.29871
 C507 C 0.61040 0.75012 0.88953
 N508 N 0.61030 0.77284 0.86617
 N509 N 0.63292 0.77288 0.84354
 C510 C 0.65635 0.75022 0.84355
 N511 N 0.65645 0.72750 0.86691
 N512 N 0.63383 0.72746 0.88954
 C513 C 0.58600 0.75006 0.91393
 C514 C 0.56552 0.75002 0.93443
 C515 C 0.68072 0.75026 0.81916
 C516 C 0.70120 0.75028 0.79867
 C517 C 0.11119 0.25016 0.38888
 N518 N 0.11109 0.27288 0.36554
 N519 N 0.13372 0.27291 0.34295
 C520 C 0.15712 0.25024 0.34302
 N521 N 0.15723 0.22752 0.36636
 N522 N 0.13459 0.22749 0.38895
 C523 C 0.08682 0.25012 0.41320
 C524 C 0.06636 0.25008 0.43364
 C525 C 0.18146 0.25026 0.31870
 C526 C 0.20192 0.25024 0.29827
 C527 C 0.61059 0.25002 0.11039
 N528 N 0.63385 0.27281 0.11048
 N529 N 0.65642 0.27283 0.13315
 C530 C 0.65645 0.25006 0.15645
 N531 N 0.63320 0.22727 0.15637
 N532 N 0.61062 0.22725 0.13370
 C533 C 0.58625 0.25000 0.08594
 C534 C 0.56579 0.24996 0.06542
 C535 C 0.68079 0.25007 0.18089
 C536 C 0.70124 0.25008 0.20140
 C537 C 0.38973 0.24957 0.88926
 N538 N 0.38970 0.22676 0.86602
 N539 N 0.36706 0.22673 0.84341
 C540 C 0.34375 0.24952 0.84332
 N541 N 0.34378 0.27233 0.86655
 N542 N 0.36641 0.27235 0.88916
 C543 C 0.41414 0.24960 0.91365
 C544 C 0.43462 0.24963 0.93413
 C545 C 0.31935 0.24950 0.81895
 C546 C 0.29886 0.24950 0.79848
 C547 C 0.38933 0.74985 0.11048
 N548 N 0.38886 0.77301 0.13336
 N549 N 0.36622 0.77301 0.15597
 C550 C 0.34335 0.74984 0.15640
 N551 N 0.34382 0.72668 0.13352
 N552 N 0.36646 0.72669 0.11091
 C553 C 0.41376 0.74985 0.08610
 C554 C 0.43426 0.74986 0.06563
 C555 C 0.31895 0.74983 0.18078
 C556 C 0.29847 0.74983 0.20126
 C557 C 0.88942 0.61061 0.75002
 N558 N 0.86616 0.61067 0.77280
 N559 N 0.84351 0.63333 0.77281
 C560 C 0.84341 0.65664 0.75005
 N561 N 0.86668 0.65658 0.72727
 N562 N 0.88933 0.63392 0.72726
 C563 C 0.91384 0.58617 0.74999
 C564 C 0.93434 0.56563 0.74998
 C565 C 0.81899 0.68105 0.75005
 C566 C 0.79848 0.70157 0.75004
 C567 C 0.38959 0.11049 0.24989
 N568 N 0.36635 0.11060 0.27268
 N569 N 0.34376 0.13329 0.27268
 C570 C 0.34374 0.15656 0.24989
 N571 N 0.36697 0.15645 0.22710
 N572 N 0.38956 0.13376 0.22710
 C573 C 0.41391 0.08606 0.24989
 C574 C 0.43435 0.06555 0.24990
 C575 C 0.31943 0.18097 0.24988
 C576 C 0.29900 0.20148 0.24986
 C577 C 0.11040 0.61039 0.24980
 N578 N 0.13369 0.61044 0.22705
 N579 N 0.15634 0.63304 0.22708
 C580 C 0.15640 0.65630 0.24987
 N581 N 0.13311 0.65625 0.27261
 N582 N 0.11046 0.63365 0.27258
 C583 C 0.08597 0.58601 0.24976
 C584 C 0.06547 0.56554 0.24974
 C585 C 0.18080 0.68067 0.24989
 C586 C 0.20128 0.70115 0.24990
 C587 C 0.88939 0.38939 0.24979
 N588 N 0.88920 0.36625 0.27272
 N589 N 0.86657 0.34363 0.27275
 C590 C 0.84342 0.34344 0.24986
 N591 N 0.84360 0.36659 0.22694
 N592 N 0.86623 0.38921 0.22690
 C593 C 0.91379 0.41380 0.24975
 C594 C 0.93427 0.43429 0.24973
 C595 C 0.81903 0.31906 0.24991
 C596 C 0.79853 0.29860 0.24994
 C597 C 0.11057 0.38917 0.74999
 N598 N 0.13382 0.38905 0.77277
 N599 N 0.15647 0.36639 0.77277
 C600 C 0.15657 0.34314 0.74998
 N601 N 0.13331 0.34325 0.72720
 N602 N 0.11067 0.36591 0.72720
 C603 C 0.08615 0.41361 0.74998
 C604 C 0.06564 0.43414 0.74999
 C605 C 0.18099 0.31872 0.74996
 C606 C 0.20152 0.29823 0.74995
 C607 C 0.88894 0.75000 0.38918
 N608 N 0.88892 0.72725 0.36591
 N609 N 0.86629 0.72729 0.34331
 C610 C 0.84301 0.75010 0.34331
 N611 N 0.84303 0.77286 0.36658
 N612 N 0.86566 0.77281 0.38918
 C613 C 0.91330 0.74996 0.41350
 C614 C 0.93377 0.74994 0.43393
 C615 C 0.81868 0.75016 0.31900
 C616 C 0.79824 0.75020 0.29854
 C617 C 0.88927 0.24994 0.61063
 N618 N 0.88884 0.27310 0.63349
 N619 N 0.86621 0.27311 0.65609
 C620 C 0.84334 0.24996 0.65650
 N621 N 0.84378 0.22679 0.63364
 N622 N 0.86640 0.22678 0.61104
 C623 C 0.91363 0.24993 0.58630
 C624 C 0.93410 0.24994 0.56587
 C625 C 0.81901 0.24996 0.68081
 C626 C 0.79856 0.24997 0.70126
 C627 C 0.11068 0.74991 0.61108
 N628 N 0.13390 0.77272 0.61115
 N629 N 0.15647 0.77274 0.63381
 C630 C 0.15650 0.74995 0.65707
 N631 N 0.13328 0.72714 0.65700
 N632 N 0.11071 0.72712 0.63435
 C633 C 0.08639 0.74990 0.58669
 C634 C 0.06598 0.74989 0.56621
 C635 C 0.18080 0.74995 0.68142
 C636 C 0.20123 0.74994 0.70188
 C637 C 0.75016 0.61113 0.11073
 N638 N 0.77297 0.61121 0.13395
 N639 N 0.77294 0.63385 0.15654
 C640 C 0.75009 0.65709 0.15658
 N641 N 0.72728 0.65702 0.13336
 N642 N 0.72732 0.63438 0.11078
 C643 C 0.75018 0.58675 0.08644
 C644 C 0.75018 0.56627 0.06602
 C645 C 0.75003 0.68142 0.18090
 C646 C 0.74997 0.70186 0.20135
 C647 C 0.24996 0.61029 0.88952
 N648 N 0.27293 0.63335 0.88928
 N649 N 0.27290 0.65603 0.86669
 C650 C 0.24991 0.65632 0.84366
 N651 N 0.22694 0.63325 0.84389
 N652 N 0.22697 0.61058 0.86648
 C653 C 0.24998 0.58587 0.91386
 C654 C 0.25001 0.56537 0.93431
 C655 C 0.24987 0.68073 0.81935
 C656 C 0.24985 0.70123 0.79891
 C657 C 0.75012 0.38918 0.88905
 N658 N 0.72735 0.36593 0.88899
 N659 N 0.72735 0.34333 0.86636
 C660 C 0.75013 0.34332 0.84311
 N661 N 0.77290 0.36657 0.84317
 N662 N 0.77290 0.38916 0.86580
 C663 C 0.75011 0.41350 0.91340
 C664 C 0.75012 0.43395 0.93386
 C665 C 0.75014 0.31901 0.81877
 C666 C 0.75013 0.29856 0.79832
 C667 C 0.61022 0.88949 0.25004
 N668 N 0.63338 0.88936 0.27290
 N669 N 0.65604 0.86673 0.27291
 C670 C 0.65620 0.84356 0.25005
 N671 N 0.63304 0.84369 0.22719
 N672 N 0.61038 0.86632 0.22719
 C673 C 0.58584 0.91386 0.25002
 C674 C 0.56537 0.93434 0.25000
 C675 C 0.68058 0.81922 0.25004
 C676 C 0.70108 0.79878 0.25003
 C677 C 0.61049 0.11121 0.74992
 N678 N 0.61068 0.13442 0.77274
 N679 N 0.63339 0.15693 0.77274
 C680 C 0.65660 0.15690 0.74992
 N681 N 0.65642 0.13369 0.72710
 N682 N 0.63370 0.11118 0.72710
 C683 C 0.58605 0.08697 0.74992
 C684 C 0.56553 0.06659 0.74994
 C685 C 0.68102 0.18113 0.74991
 C686 C 0.70153 0.20152 0.74990
 C687 C 0.38866 0.88940 0.75017
 N688 N 0.38863 0.86623 0.77307
 N689 N 0.36610 0.84353 0.77311
 C690 C 0.34293 0.84333 0.75026
 N691 N 0.34295 0.86649 0.72736
 N692 N 0.36548 0.88918 0.72732
 C693 C 0.41291 0.91382 0.75013
 C694 C 0.43330 0.93433 0.75009
 C695 C 0.31868 0.81892 0.75031
 C696 C 0.29828 0.79842 0.75033
   
