data_POSCAR
  _audit_creation_date              2014-09-24
  _audit_creation_method            'ToBaCCo'
  _symmetry_space_group_name_H-M    'P1'
  _symmetry_Int_Tables_number       1
  _symmetry_cell_setting            triclinic
  loop_
  _symmetry_equiv_pos_as_xyz
 x,y,z
_cell_length_a 19.1760
_cell_length_b 19.2300
_cell_length_c 19.1957
_cell_angle_alpha 69.227500
_cell_angle_beta 112.532400
_cell_angle_gamma 67.552800
loop_
  _atom_site_label
  _atom_site_type_symbol
  _atom_site_fract_x
  _atom_site_fract_y
  _atom_site_fract_z
O1 O 0.65349 0.43423 0.09431
 O2 O 0.42521 0.51239 0.05865
 O3 O 0.55259 0.36816 0.07997
 O4 O 0.52370 0.57627 0.06061
 O5 O 0.43351 0.65635 -0.09267
 O6 O 0.48814 0.44159 -0.07017
 O7 O 0.35645 0.56525 -0.08886
 O8 O 0.57386 0.51758 -0.05841
 Cu9 Cu 0.54605 0.46408 0.08907
 Cu10 Cu 0.45511 0.55399 -0.09272
 C11 C 0.65078 0.46815 0.02238
 C12 C 0.35386 0.54558 -0.01977
 C13 C 0.52379 0.37029 0.00692
 C14 C 0.47570 0.65109 -0.01936
 O15 O -0.08485 0.67119 0.41822
 O16 O -0.08057 0.46561 0.46596
 O17 O -0.08691 0.56009 0.53873
 O18 O -0.07437 0.57360 0.34855
 O19 O 0.08120 0.48303 0.44638
 O20 O 0.06875 0.46452 0.63811
 O21 O 0.07506 0.37359 0.56240
 O22 O 0.07022 0.57878 0.51890
 Cu23 Cu -0.09697 0.57684 0.43346
 Cu24 Cu 0.08948 0.46636 0.55123
 C25 C -0.00799 0.65951 0.46435
 C26 C -0.00233 0.38553 0.51764
 C27 C -0.01138 0.51198 0.61989
 C28 C 0.00582 0.52601 0.36647
 O29 O 0.46886 0.09194 0.54606
 O30 O 0.43393 0.09002 0.34467
 O31 O 0.34698 0.09824 0.42205
 O32 O 0.55725 0.08488 0.46648
 O33 O 0.64700 -0.06846 0.55809
 O34 O 0.43696 -0.05514 0.51566
 O35 O 0.52392 -0.06338 0.43544
 O36 O 0.56067 -0.06137 0.63715
 Cu37 Cu 0.44352 0.10665 0.43614
 Cu38 Cu 0.55084 -0.07747 0.54535
 C39 C 0.51546 0.01580 0.62460
 C40 C 0.47682 0.01275 0.35684
 C41 C 0.35776 0.02338 0.46636
 C42 C 0.63635 0.00659 0.51484
 C43 C 0.49195 0.01146 -0.08500
 C44 C 0.48862 -0.05225 -0.02291
 C45 C 0.48927 -0.04714 0.04827
 C46 C 0.49619 0.01744 0.06173
 C47 C 0.49977 0.08120 0.00011
 C48 C 0.49842 0.07640 -0.07164
 H49 H 0.50417 0.12318 -0.11709
 H50 H 0.48134 -0.09218 0.09239
 C51 C 0.01930 0.47489 1.09051
 C52 C -0.04282 0.46740 1.02911
 C53 C -0.04058 0.47407 0.95523
 C54 C 0.01461 0.49494 0.93503
 C55 C 0.07705 0.50392 0.99537
 C56 C 0.08045 0.48889 1.07485
 H57 H 0.12948 0.49059 1.12504
 H58 H -0.08619 0.46594 0.90937
 C59 C 0.06636 0.02791 0.49192
 C60 C 0.00488 0.08588 0.50216
 C61 C -0.06113 0.07306 0.50615
 C62 C -0.07027 0.00756 0.49595
 C63 C -0.00933 -0.04947 0.48458
 C64 C 0.05800 -0.03804 0.48277
 H65 H 0.10287 -0.07931 0.47105
 H66 H -0.10512 0.11396 0.51867
 C67 C -0.27413 0.50163 0.94833
 C68 C -0.26470 0.45449 1.02965
 C69 C -0.17398 0.39836 1.11515
 C70 C -0.09921 0.39871 1.11711
 C71 C -0.11484 0.45705 1.03382
 C72 C -0.20193 0.50241 0.95050
 C73 C -0.26754 0.59966 0.86475
 C74 C -0.34751 0.59985 0.86308
 H75 H -0.16178 0.35743 1.18021
 H76 H -0.03100 0.35634 1.18352
 H77 H -0.26789 0.60322 0.80553
 H78 H -0.25776 0.64774 0.87856
 H79 H -0.39465 0.60499 0.80210
 H80 H -0.38422 0.64798 0.87677
 C81 C 0.22871 0.53068 0.91722
 C82 C 0.27423 0.55414 0.97061
 C83 C 0.24399 0.57458 1.02144
 C84 C 0.17372 0.56692 1.02167
 C85 C 0.13842 0.52884 0.97950
 C86 C 0.16566 0.51484 0.92442
 C87 C 0.20859 0.42983 0.92701
 C88 C 0.27513 0.44830 0.91732
 H89 H 0.27487 0.59605 1.06142
 H90 H 0.15078 0.58766 1.05873
 H91 H 0.16138 0.43615 0.86544
 H92 H 0.24444 0.36586 0.99546
 H93 H 0.26273 0.46862 0.84948
 H94 H 0.34967 0.39340 0.97992
 C95 C 0.07380 -0.27899 0.51747
 C96 C -0.00924 -0.26511 0.45870
 C97 C -0.09417 -0.17372 0.39954
 C98 C -0.09540 -0.10269 0.40691
 C99 C -0.01221 -0.12153 0.47404
 C100 C 0.07207 -0.20919 0.52448
 C101 C 0.14877 -0.27495 0.62665
 C102 C 0.15086 -0.35186 0.61962
 H103 H -0.16031 -0.15782 0.35048
 H104 H -0.16147 -0.03408 0.36201
 H105 H 0.12445 -0.26266 0.66803
 H106 H 0.21338 -0.27974 0.64386
 H107 H 0.12757 -0.38413 0.65690
 H108 H 0.21749 -0.40184 0.63403
 C109 C 0.08440 0.22221 0.56490
 C110 C -0.00108 0.30800 0.51769
 C111 C -0.08459 0.32347 0.45574
 C112 C -0.08207 0.25200 0.44915
 C113 C 0.00397 0.16301 0.50406
 C114 C 0.08676 0.15153 0.55873
 C115 C 0.16789 0.07804 0.65908
 C116 C 0.16537 0.15517 0.66610
 H117 H -0.15213 0.39060 0.41260
 H118 H -0.14781 0.26594 0.40219
 H119 H 0.23260 0.03114 0.66894
 H120 H 0.14907 0.04238 0.69980
 H121 H 0.22871 0.15218 0.68012
 H122 H 0.14502 0.16445 0.71090
 C123 C 0.55587 -0.06720 -0.22052
 C124 C 0.50974 0.01641 -0.30494
 C125 C 0.44540 0.09918 -0.32142
 C126 C 0.43534 0.09708 -0.25185
 C127 C 0.48987 0.01250 -0.16365
 C128 C 0.54652 -0.06900 -0.15190
 C129 C 0.64739 -0.14889 -0.07560
 C130 C 0.65827 -0.14656 -0.15052
 H131 H 0.40312 0.16570 -0.38759
 H132 H 0.38729 0.16206 -0.26596
 H133 H 0.65498 -0.21183 -0.03288
 H134 H 0.68754 -0.13078 -0.03598
 H135 H 0.67347 -0.20867 -0.14964
 H136 H 0.70427 -0.12631 -0.15527
 C137 C 0.42368 0.09501 0.19317
 C138 C 0.47993 0.01184 0.28158
 C139 C 0.55175 -0.06823 0.30080
 C140 C 0.55990 -0.06567 0.23023
 C141 C 0.49680 0.01710 0.13915
 C142 C 0.43126 0.09716 0.12351
 C143 C 0.32762 0.16431 0.05008
 C144 C 0.31868 0.16195 0.12615
 H145 H 0.60120 -0.13291 0.36999
 H146 H 0.61368 -0.12884 0.24604
 H147 H 0.29766 0.13406 0.02021
 H148 H 0.30730 0.23184 -0.00198
 H149 H 0.28353 0.13027 0.14041
 H150 H 0.29207 0.22854 0.11852
 C151 C 0.55627 -0.28962 0.04549
 C152 C 0.47734 -0.27118 -0.02581
 C153 C 0.40750 -0.17838 -0.10627
 C154 C 0.41186 -0.10619 -0.10730
 C155 C 0.48635 -0.12607 -0.02843
 C156 C 0.55984 -0.21952 0.04503
 C157 C 0.61766 -0.27397 0.14873
 C158 C 0.61451 -0.35207 0.14911
 H159 H 0.34783 -0.16115 -0.16613
 H160 H 0.35542 -0.03495 -0.16741
 H161 H 0.58034 -0.24553 0.17474
 H162 H 0.68910 -0.29118 0.18029
 H163 H 0.57469 -0.36657 0.17400
 H164 H 0.68439 -0.41424 0.18037
 C165 C 0.56858 0.20880 0.09054
 C166 C 0.52114 0.29449 0.00763
 C167 C 0.45559 0.31352 -0.07635
 C168 C 0.44456 0.24594 -0.07734
 C169 C 0.50122 0.15597 0.00509
 C170 C 0.56013 0.14056 0.08889
 C171 C 0.66186 0.06419 0.16660
 C172 C 0.67177 0.13844 0.16830
 H173 H 0.41209 0.38110 -0.14175
 H174 H 0.39410 0.26313 -0.14346
 H175 H 0.70039 0.02943 0.14453
 H176 H 0.67267 0.01667 0.23011
 H177 H 0.71613 0.14692 0.14723
 H178 H 0.68920 0.13265 0.23321
 C179 C -0.30852 0.07608 0.43448
 C180 C -0.28688 0.00305 0.51181
 C181 C -0.19255 -0.07825 0.57614
 C182 C -0.12148 -0.07899 0.56915
 C183 C -0.14403 0.00122 0.49731
 C184 C -0.23949 0.07582 0.42791
 C185 C -0.29448 0.17902 0.37592
 C186 C -0.37092 0.17898 0.38311
 H187 H -0.17314 -0.13964 0.63351
 H188 H -0.04881 -0.14011 0.62216
 H189 H -0.31692 0.21383 0.30335
 H190 H -0.26233 0.20201 0.41508
 H191 H -0.43689 0.21325 0.31467
 H192 H -0.38074 0.20017 0.42746
 C193 C 0.30346 -0.03942 0.55216
 C194 C 0.28122 0.02794 0.47024
 C195 C 0.18607 0.10730 0.40172
 C196 C 0.11519 0.11026 0.41039
 C197 C 0.13899 0.03469 0.48847
 C198 C 0.23467 -0.03674 0.56071
 C199 C 0.29198 -0.14023 0.62251
 C200 C 0.36815 -0.14309 0.61277
 H201 H 0.16608 0.16502 0.34015
 H202 H 0.04197 0.16892 0.35437
 H203 H 0.26170 -0.16904 0.59066
 H204 H 0.31321 -0.16699 0.69425
 H205 H 0.38020 -0.17206 0.57422
 H206 H 0.43302 -0.17163 0.67900
 C207 C -0.07118 0.55135 1.21271
 C208 C 0.01120 0.51240 1.29708
 C209 C 0.09772 0.44591 1.32019
 C210 C 0.10056 0.42875 1.25533
 C211 C 0.01696 0.47729 1.16609
 C212 C -0.06817 0.53507 1.14884
 C213 C -0.15147 0.63184 1.06762
 C214 C -0.15469 0.65039 1.13741
 H215 H 0.16331 0.40843 1.38750
 H216 H 0.16829 0.38040 1.27356
 H217 H -0.21257 0.63449 1.02504
 H218 H -0.13381 0.67065 1.02807
 H219 H -0.21808 0.66446 1.13383
 H220 H -0.13887 0.70006 1.13867
 C221 C -0.00258 0.44063 0.76147
 C222 C -0.01710 0.51456 0.69258
 C223 C -0.03758 0.59203 0.69512
 C224 C -0.02944 0.58796 0.77310
 C225 C 0.00096 0.50563 0.84956
 C226 C 0.00454 0.43709 0.83701
 C227 C 0.07516 0.33406 0.90093
 C228 C 0.06897 0.33807 0.81790
 H229 H -0.05432 0.65304 0.63984
 H230 H -0.04178 0.64646 0.77584
 H231 H 0.04665 0.29929 0.92632
 H232 H 0.14404 0.31186 0.95591
 H233 H 0.03807 0.30445 0.79632
 H234 H 0.13488 0.31848 0.82441
   
