data_POSCAR
  _audit_creation_date              2014-09-24
  _audit_creation_method            'ToBaCCo'
  _symmetry_space_group_name_H-M    'P1'
  _symmetry_Int_Tables_number       1
  _symmetry_cell_setting            triclinic
  loop_
  _symmetry_equiv_pos_as_xyz
 x,y,z
_cell_length_a 52.1162
_cell_length_b 51.6205
_cell_length_c 40.0239
_cell_angle_alpha 90.555700
_cell_angle_beta 89.643600
_cell_angle_gamma 119.618200
loop_
  _atom_site_label
  _atom_site_type_symbol
  _atom_site_fract_x
  _atom_site_fract_y
  _atom_site_fract_z
C1 C -0.00307 0.50062 0.00053
 C2 C -0.01120 0.47213 0.00950
 C3 C 0.00663 0.46491 0.03238
 C4 C -0.03769 0.44667 -0.00560
 C5 C -0.01882 0.50583 -0.02707
 C6 C 0.02135 0.52687 0.01740
 C7 C 0.03706 0.47683 0.02718
 C8 C 0.05350 0.46920 0.04823
 C9 C 0.03972 0.44908 0.07449
 C10 C 0.00918 0.43672 0.07929
 C11 C -0.00722 0.44456 0.05838
 C12 C -0.03455 0.42749 -0.02796
 C13 C -0.05852 0.40709 -0.04710
 C14 C -0.08654 0.40536 -0.04450
 C15 C -0.08961 0.42337 -0.01952
 C16 C -0.06559 0.44362 -0.00048
 C17 C -0.03902 0.51563 -0.01992
 C18 C -0.05988 0.51246 -0.04384
 C19 C -0.06074 0.49947 -0.07519
 C20 C -0.03881 0.49212 -0.08314
 C21 C -0.01791 0.49546 -0.05935
 C22 C 0.02158 0.53007 0.05230
 C23 C 0.04584 0.55348 0.06832
 C24 C 0.07035 0.57402 0.04972
 C25 C 0.06962 0.57134 0.01470
 C26 C 0.04520 0.54812 -0.00134
 H27 H 0.04805 0.49176 0.00657
 H28 H 0.07692 0.47863 0.04361
 H29 H -0.00194 0.42132 0.09949
 H30 H -0.03073 0.43487 0.06260
 H31 H -0.01303 0.42965 -0.03220
 H32 H -0.05374 0.39484 -0.06576
 H33 H -0.06851 0.45778 0.01749
 H34 H -0.04015 0.52346 0.00496
 H35 H -0.07655 0.51827 -0.03704
 H36 H -0.03861 0.48260 -0.10731
 H37 H -0.00239 0.48786 -0.06526
 H38 H 0.00323 0.51403 0.06716
 H39 H 0.04589 0.55494 0.09533
 H40 H 0.08811 0.58706 -0.00022
 H41 H 0.04538 0.54609 -0.02829
 H42 H -0.11058 0.42186 -0.01377
 C43 C 0.48683 0.49459 0.00281
 C44 C 0.51312 0.52007 -0.00226
 C45 C 0.52160 0.54808 0.01656
 C46 C 0.53560 0.52050 -0.02575
 C47 C 0.48050 0.46579 -0.01318
 C48 C 0.46264 0.49389 0.02363
 C49 C 0.53391 0.57522 -0.00059
 C50 C 0.54376 0.60200 0.01687
 C51 C 0.54138 0.60210 0.05181
 C52 C 0.52885 0.57495 0.06900
 C53 C 0.51935 0.54818 0.05155
 C54 C 0.52809 0.51021 -0.05883
 C55 C 0.54759 0.50554 -0.07864
 C56 C 0.57529 0.51220 -0.06615
 C57 C 0.58390 0.52506 -0.03428
 C58 C 0.56412 0.52909 -0.01414
 C59 C 0.50001 0.45448 -0.00991
 C60 C 0.49458 0.42841 -0.02682
 C61 C 0.46897 0.41262 -0.04610
 C62 C 0.44892 0.42326 -0.04830
 C63 C 0.45471 0.44969 -0.03215
 C64 C 0.44766 0.47056 0.04638
 C65 C 0.42273 0.46721 0.06328
 C66 C 0.41238 0.48729 0.05811
 C67 C 0.42788 0.51137 0.03646
 C68 C 0.45266 0.51447 0.01901
 H69 H 0.53605 0.57567 -0.02755
 H70 H 0.55319 0.62265 0.00308
 H71 H 0.52722 0.57454 0.09600
 H72 H 0.51076 0.52763 0.06542
 H73 H 0.50648 0.50417 -0.06856
 H74 H 0.54071 0.49579 -0.10332
 H75 H 0.57046 0.53735 0.01117
 H76 H 0.51965 0.46609 0.00530
 H77 H 0.51010 0.42032 -0.02447
 H78 H 0.42900 0.41134 -0.06304
 H79 H 0.43927 0.45784 -0.03486
 H80 H 0.45484 0.45440 0.05038
 H81 H 0.41105 0.44847 0.07989
 H82 H 0.41999 0.52688 0.03185
 H83 H 0.46336 0.53227 0.00107
 H84 H 0.60520 0.53028 -0.02427
 C85 C 0.50419 0.99718 -0.00335
 C86 C 0.47966 1.00026 -0.00341
 C87 C 0.45215 0.97965 0.01462
 C88 C 0.47970 1.02531 -0.02141
 C89 C 0.53128 1.01834 -0.02190
 C90 C 0.50672 0.97441 0.01672
 C91 C 0.43913 0.94858 0.01106
 C92 C 0.41339 0.92971 0.02867
 C93 C 0.39994 0.94161 0.04952
 C94 C 0.41260 0.97266 0.05239
 C95 C 0.43845 0.99147 0.03513
 C96 C 0.46110 1.01951 -0.04897
 C97 C 0.46386 1.04294 -0.06877
 C98 C 0.48518 1.07251 -0.06114
 C99 C 0.50246 1.07830 -0.03224
 C100 C 0.49964 1.05491 -0.01247
 C101 C 0.55779 1.03467 -0.00447
 C102 C 0.58338 1.05509 -0.02103
 C103 C 0.58329 1.05985 -0.05575
 C104 C 0.55633 1.04327 -0.07308
 C105 C 0.53080 1.02251 -0.05642
 C106 C 0.50200 0.97224 0.05147
 C107 C 0.50953 0.95435 0.07060
 C108 C 0.52238 0.93889 0.05530
 C109 C 0.52575 0.94002 0.02044
 C110 C 0.51796 0.95753 0.00137
 H111 H 0.44885 0.93895 -0.00533
 H112 H 0.40382 0.90582 0.02577
 H113 H 0.40284 0.98240 0.06857
 H114 H 0.44803 1.01535 0.03819
 H115 H 0.44549 0.99677 -0.05607
 H116 H 0.45032 1.03780 -0.09092
 H117 H 0.51379 1.05978 0.00911
 H118 H 0.55855 1.03200 0.02226
 H119 H 0.60285 1.06796 -0.00596
 H120 H 0.55498 1.04514 -0.09982
 H121 H 0.51064 1.00963 -0.07048
 H122 H 0.49395 0.98553 0.06399
 H123 H 0.50701 0.95404 0.09749
 H124 H 0.53546 0.92815 0.00807
 H125 H 0.52189 0.95893 -0.02533
 H126 H 0.51862 1.10090 -0.02534
 C127 C 1.00361 0.49273 0.51172
 C128 C 1.00207 0.51748 0.50288
 C129 C 0.98120 0.52537 0.51952
 C130 C 1.02023 0.53683 0.47501
 C131 C 1.02613 0.48593 0.49692
 C132 C 0.98106 0.46947 0.53391
 C133 C 0.96264 0.53161 0.50008
 C134 C 0.94038 0.53525 0.51512
 C135 C 0.93612 0.53258 0.54993
 C136 C 0.95612 0.52849 0.56956
 C137 C 0.97864 0.52524 0.55450
 C138 C 1.02107 0.52437 0.44399
 C139 C 1.04213 0.54154 0.42017
 C140 C 1.06191 0.57205 0.42603
 C141 C 1.05852 0.58512 0.45570
 C142 C 1.03813 0.56757 0.48008
 C143 C 1.05606 0.50778 0.49412
 C144 C 1.07596 0.50165 0.47691
 C145 C 1.06688 0.47289 0.46394
 C146 C 1.03719 0.45066 0.46872
 C147 C 1.01713 0.45721 0.48450
 C148 C 0.99015 0.45769 0.55977
 C149 C 0.96949 0.43292 0.57754
 C150 C 0.93932 0.41965 0.57003
 C151 C 0.92996 0.43216 0.54528
 C152 C 0.95071 0.45665 0.52702
 H153 H 0.96449 0.53231 0.47309
 H154 H 0.92586 0.53917 0.49935
 H155 H 0.95349 0.52625 0.59640
 H156 H 0.99326 0.52128 0.57008
 H157 H 1.00646 0.50090 0.43897
 H158 H 1.04266 0.53081 0.39701
 H159 H 1.03743 0.57771 0.50364
 H160 H 1.06390 0.52987 0.50450
 H161 H 1.09869 0.51925 0.47486
 H162 H 1.02871 0.42845 0.45845
 H163 H 0.99424 0.43988 0.48614
 H164 H 1.01339 0.46704 0.56534
 H165 H 0.97712 0.42348 0.59650
 H166 H 0.90681 0.42193 0.53880
 H167 H 0.94316 0.46477 0.50660
 H168 H 1.07318 0.60838 0.46156
 C169 C 0.51572 0.52473 0.50846
 C170 C 0.48744 0.50154 0.50880
 C171 C 0.47823 0.47399 0.52837
 C172 C 0.46403 0.50281 0.48932
 C173 C 0.52454 0.55133 0.48700
 C174 C 0.53931 0.52549 0.52995
 C175 C 0.49302 0.45755 0.52526
 C176 C 0.48388 0.43166 0.54395
 C177 C 0.45954 0.42152 0.56570
 C178 C 0.44452 0.43777 0.56828
 C179 C 0.45373 0.46367 0.54976
 C180 C 0.44959 0.48198 0.46370
 C181 C 0.42957 0.48469 0.44305
 C182 C 0.42347 0.50812 0.44797
 C183 C 0.43695 0.52808 0.47476
 C184 C 0.45702 0.52541 0.49532
 C185 C 0.53883 0.57990 0.50148
 C186 C 0.54804 0.60516 0.48176
 C187 C 0.54304 0.60239 0.44713
 C188 C 0.52849 0.57380 0.43260
 C189 C 0.51966 0.54850 0.45230
 C190 C 0.53512 0.51999 0.56447
 C191 C 0.55828 0.52275 0.58446
 C192 C 0.58618 0.53198 0.57041
 C193 C 0.59040 0.53750 0.53603
 C194 C 0.56714 0.53409 0.51596
 H195 H 0.51155 0.46472 0.50833
 H196 H 0.49562 0.41935 0.54108
 H197 H 0.42594 0.43075 0.58511
 H198 H 0.44194 0.47595 0.55246
 H199 H 0.45472 0.46436 0.45887
 H200 H 0.41974 0.46912 0.42247
 H201 H 0.46764 0.54135 0.51542
 H202 H 0.54289 0.58264 0.52814
 H203 H 0.55908 0.62694 0.49360
 H204 H 0.52475 0.57111 0.40589
 H205 H 0.50933 0.52675 0.44042
 H206 H 0.51417 0.51425 0.57608
 H207 H 0.55476 0.51879 0.61105
 H208 H 0.61181 0.54465 0.52479
 H209 H 0.57099 0.53864 0.48949
 H210 H 0.43219 0.54596 0.47962
 C211 C 0.47960 0.00165 0.49799
 C212 C 0.50399 -0.00163 0.50048
 C213 C 0.53127 0.01988 0.51902
 C214 C 0.50599 -0.02621 0.48325
 C215 C 0.45312 -0.01922 0.47785
 C216 C 0.47797 0.02674 0.51462
 C217 C 0.55883 0.02936 0.50388
 C218 C 0.58494 0.04788 0.52080
 C219 C 0.58453 0.05882 0.55305
 C220 C 0.55679 0.04938 0.56825
 C221 C 0.53056 0.02953 0.55180
 C222 C 0.50346 -0.02977 0.44842
 C223 C 0.51005 -0.04995 0.43231
 C224 C 0.52048 -0.06617 0.45060
 C225 C 0.52167 -0.06325 0.48572
 C226 C 0.51439 -0.04368 0.50174
 C227 C 0.43968 -0.05037 0.48061
 C228 C 0.41508 -0.06912 0.46101
 C229 C 0.40225 -0.05721 0.43942
 C230 C 0.41549 -0.02590 0.43757
 C231 C 0.44062 -0.00733 0.45616
 C232 C 0.45368 0.02032 0.53520
 C233 C 0.45068 0.04326 0.54993
 C234 C 0.47207 0.07311 0.54466
 C235 C 0.49659 0.07974 0.52439
 C236 C 0.49928 0.05670 0.50897
 H237 H 0.56025 0.02198 0.47885
 H238 H 0.60538 0.05311 0.50838
 H239 H 0.55506 0.05728 0.59280
 H240 H 0.50975 0.02183 0.56471
 H241 H 0.49766 -0.01599 0.43359
 H242 H 0.50922 -0.05083 0.40530
 H243 H 0.51633 -0.04135 0.52868
 H244 H 0.44806 -0.06027 0.49807
 H245 H 0.40533 -0.09294 0.46418
 H246 H 0.40738 -0.01542 0.42058
 H247 H 0.45049 0.01657 0.45338
 H248 H 0.43688 -0.00256 0.53967
 H249 H 0.43159 0.03773 0.56547
 H250 H 0.51311 0.10268 0.51975
 H251 H 0.51782 0.06220 0.49252
 H252 H 0.52806 -0.07621 0.50116
 O253 O 0.19223 0.43321 0.23267
 O254 O 0.25812 0.45840 0.28601
 O255 O 0.20301 0.44217 0.29595
 O256 O 0.24631 0.44591 0.22249
 O257 O 0.25962 0.49326 0.21518
 O258 O 0.21321 0.48859 0.28872
 O259 O 0.26882 0.50500 0.27889
 O260 O 0.20480 0.48021 0.22440
 Cu261 Cu 0.22392 0.44031 0.26003
 Cu262 Cu 0.23780 0.49647 0.25105
 C263 C 0.18739 0.45265 0.21934
 C264 C 0.27457 0.48612 0.29177
 C265 C 0.20012 0.46423 0.30483
 C266 C 0.26025 0.46985 0.20615
 O267 O 0.59638 0.78104 0.21649
 O268 O 0.59175 0.82618 0.28521
 O269 O 0.59585 0.77857 0.28130
 O270 O 0.59231 0.82897 0.21997
 O271 O 0.54373 0.80192 0.21861
 O272 O 0.54727 0.75138 0.28146
 O273 O 0.54306 0.79985 0.28367
 O274 O 0.54783 0.75332 0.21637
 Cu275 Cu 0.59891 0.80648 0.25074
 Cu276 Cu 0.54056 0.77388 0.24992
 C277 C 0.57293 0.75930 0.20486
 C278 C 0.56668 0.82064 0.29625
 C279 C 0.57232 0.75653 0.29216
 C280 C 0.56763 0.82408 0.20851
 O281 O 0.19755 0.73595 0.27711
 O282 O 0.23537 0.79393 0.21381
 O283 O 0.19767 0.73714 0.21237
 O284 O 0.23592 0.79302 0.27864
 O285 O 0.27184 0.78212 0.27884
 O286 O 0.23521 0.72866 0.20962
 O287 O 0.27263 0.78501 0.21368
 O288 O 0.23323 0.72469 0.27401
 Cu289 Cu 0.21300 0.76605 0.24581
 Cu290 Cu 0.25698 0.75421 0.24419
 C291 C 0.20843 0.71972 0.28543
 C292 C 0.26050 0.79943 0.20294
 C293 C 0.21007 0.72355 0.19940
 C294 C 0.26046 0.79732 0.28996
 O295 O 0.74126 0.52228 0.79404
 O296 O 0.79335 0.53383 0.72461
 O297 O 0.74736 0.53988 0.73255
 O298 O 0.79004 0.51893 0.78744
 O299 O 0.76408 0.47227 0.77030
 O300 O 0.71802 0.49265 0.71900
 O301 O 0.76382 0.48737 0.70829
 O302 O 0.71544 0.47483 0.77975
 Cu303 Cu 0.77086 0.53336 0.76156
 Cu304 Cu 0.73767 0.47697 0.74314
 C305 C 0.71908 0.49644 0.79825
 C306 C 0.78655 0.51257 0.70388
 C307 C 0.72544 0.52003 0.71643
 C308 C 0.78503 0.49227 0.78761
 O309 O 0.44808 0.19977 0.77742
 O310 O 0.42901 0.24606 0.72403
 O311 O 0.43779 0.20161 0.71369
 O312 O 0.43557 0.24206 0.78777
 O313 O 0.48254 0.27551 0.78137
 O314 O 0.48548 0.23274 0.70737
 O315 O 0.47645 0.27763 0.71701
 O316 O 0.49519 0.23291 0.77142
 Cu317 Cu 0.43294 0.21909 0.75142
 Cu318 Cu 0.48967 0.25787 0.74373
 C319 C 0.47512 0.20880 0.78379
 C320 C 0.44967 0.26971 0.71115
 C321 C 0.46162 0.21016 0.69762
 C322 C 0.45825 0.26578 0.79721
 O323 O 0.79674 0.25026 0.78294
 O324 O 0.75690 0.19034 0.72032
 O325 O 0.80209 0.24302 0.71936
 O326 O 0.75452 0.19547 0.78543
 O327 O 0.72270 0.21127 0.77722
 O328 O 0.77215 0.26100 0.71032
 O329 O 0.72596 0.20739 0.71245
 O330 O 0.76522 0.26633 0.77427
 Cu331 Cu 0.78054 0.21802 0.75294
 Cu332 Cu 0.74339 0.23814 0.74266
 C333 C 0.78749 0.26846 0.78938
 C334 C 0.73477 0.18908 0.70555
 C335 C 0.79556 0.26001 0.70338
 C336 C 0.73082 0.19528 0.79308
 C337 C 0.10103 0.45583 0.12981
 C338 C 0.09055 0.42657 0.13851
 C339 C 0.06353 0.40360 0.12734
 C340 C 0.04674 0.41115 0.10634
 C341 C 0.05729 0.44121 0.09688
 C342 C 0.08486 0.46378 0.10892
 O343 O 0.12694 0.47438 0.14332
 C344 C 0.13305 0.45649 0.16090
 C345 C 0.11161 0.42699 0.15881
 C346 C 0.11380 0.40461 0.17547
 C347 C 0.13904 0.41307 0.19516
 C348 C 0.16127 0.44347 0.19789
 C349 C 0.15809 0.46536 0.18030
 H350 H 0.05565 0.38072 0.13453
 H351 H 0.02576 0.39361 0.09709
 H352 H 0.09334 0.48695 0.10256
 H353 H 0.09668 0.38151 0.17349
 H354 H 0.14107 0.39602 0.20849
 H355 H 0.17458 0.48874 0.18171
 C356 C 0.54719 0.66065 0.11321
 C357 C 0.57493 0.68368 0.10581
 C358 C 0.59257 0.68164 0.08088
 C359 C 0.58115 0.65473 0.06291
 C360 C 0.55273 0.63055 0.07036
 C361 C 0.53555 0.63365 0.09590
 O362 O 0.53405 0.66711 0.13778
 C363 C 0.55396 0.69478 0.14618
 C364 C 0.57942 0.70591 0.12749
 C365 C 0.60341 0.73421 0.13272
 C366 C 0.60108 0.75170 0.15833
 C367 C 0.57494 0.74078 0.17780
 C368 C 0.55101 0.71191 0.17142
 H369 H 0.61434 0.70004 0.07555
 H370 H 0.59462 0.65251 0.04362
 H371 H 0.51373 0.61563 0.10198
 H372 H 0.62328 0.74242 0.11782
 H373 H 0.61957 0.77377 0.16288
 H374 H 0.53090 0.70281 0.18604
 C375 C 0.34710 0.88083 0.10684
 C376 C 0.32433 0.88707 0.10847
 C377 C 0.32452 0.91021 0.09077
 C378 C 0.34933 0.92779 0.07087
 C379 C 0.37317 0.92187 0.06897
 C380 C 0.37180 0.89781 0.08703
 O381 O 0.34307 0.85850 0.12636
 C382 C 0.31719 0.85046 0.14062
 C383 C 0.30475 0.86717 0.13051
 C384 C 0.27791 0.86281 0.14288
 C385 C 0.26334 0.84029 0.16665
 C386 C 0.27582 0.82283 0.17761
 C387 C 0.30316 0.82807 0.16420
 H388 H 0.30642 0.91481 0.09256
 H389 H 0.35004 0.94605 0.05701
 H390 H 0.38987 0.89309 0.08655
 H391 H 0.26861 0.87633 0.13467
 H392 H 0.24246 0.83664 0.17663
 H393 H 0.31338 0.81526 0.17199
 C394 C 0.88370 0.53786 0.61219
 C395 C 0.85750 0.52214 0.59524
 C396 C 0.85565 0.51064 0.56329
 C397 C 0.88187 0.51520 0.54824
 C398 C 0.90933 0.53101 0.56519
 C399 C 0.91016 0.54282 0.59759
 O400 O 0.88023 0.54517 0.64317
 C401 C 0.85117 0.53362 0.64583
 C402 C 0.83634 0.51926 0.61713
 C403 C 0.80576 0.50358 0.61497
 C404 C 0.78974 0.50228 0.64370
 C405 C 0.80440 0.51675 0.67370
 C406 C 0.83560 0.53315 0.67464
 H407 H 0.83464 0.49782 0.55078
 H408 H 0.88050 0.50524 0.52392
 H409 H 0.93060 0.55479 0.61138
 H410 H 0.79464 0.49204 0.59226
 H411 H 0.76586 0.48966 0.64275
 H412 H 0.84727 0.54379 0.69745
 C413 C 0.46149 0.36396 0.62170
 C414 C 0.43184 0.34434 0.62572
 C415 C 0.41017 0.34835 0.61042
 C416 C 0.41948 0.37367 0.59038
 C417 C 0.44999 0.39434 0.58601
 C418 C 0.47122 0.38917 0.60187
 O419 O 0.47853 0.35634 0.63860
 C420 C 0.45924 0.33137 0.65360
 C421 C 0.43036 0.32299 0.64661
 C422 C 0.40670 0.29753 0.66001
 C423 C 0.41312 0.28002 0.68141
 C424 C 0.44280 0.28824 0.68894
 C425 C 0.46610 0.31440 0.67472
 H426 H 0.38695 0.33262 0.61387
 H427 H 0.40293 0.37708 0.57814
 H428 H 0.49463 0.40465 0.59948
 H429 H 0.38412 0.29137 0.65421
 H430 H 0.39501 0.26011 0.69201
 H431 H 0.48900 0.32142 0.67985
 C432 C 0.64151 0.10195 0.62070
 C433 C 0.66643 0.11767 0.60162
 C434 C 0.66607 0.11619 0.56701
 C435 C 0.63902 0.09746 0.55139
 C436 C 0.61292 0.07967 0.57037
 C437 C 0.61454 0.08227 0.60580
 O438 O 0.64607 0.10862 0.65303
 C439 C 0.67453 0.12889 0.65433
 C440 C 0.68813 0.13486 0.62357
 C441 C 0.71771 0.15599 0.61899
 C442 C 0.73372 0.17220 0.64716
 C443 C 0.71977 0.16738 0.67873
 C444 C 0.68990 0.14520 0.68251
 H445 H 0.68576 0.12968 0.55245
 H446 H 0.63867 0.09751 0.52441
 H447 H 0.59561 0.06945 0.62161
 H448 H 0.72784 0.16043 0.59449
 H449 H 0.75642 0.18966 0.64409
 H450 H 0.67867 0.14178 0.70628
 C451 C 0.47390 0.12172 0.87790
 C452 C 0.50275 0.14247 0.87111
 C453 C 0.52657 0.14184 0.88564
 C454 C 0.52044 0.11882 0.90811
 C455 C 0.49088 0.09704 0.91567
 C456 C 0.46727 0.09856 0.90018
 O457 O 0.45460 0.12655 0.86146
 C458 C 0.47168 0.15086 0.84390
 C459 C 0.50130 0.16139 0.84893
 C460 C 0.52316 0.18661 0.83327
 C461 C 0.51417 0.20176 0.81162
 C462 C 0.48372 0.19160 0.80600
 C463 C 0.46218 0.16559 0.82238
 H464 H 0.54909 0.15839 0.87977
 H465 H 0.53877 0.11768 0.91917
 H466 H 0.44450 0.08239 0.90550
 H467 H 0.54633 0.19443 0.83767
 H468 H 0.53103 0.22155 0.79941
 H469 H 0.43881 0.15727 0.81878
 C470 C 0.63908 0.51295 0.88775
 C471 C 0.62730 0.48299 0.88122
 C472 C 0.59889 0.46181 0.89070
 C473 C 0.58192 0.47191 0.90779
 C474 C 0.59366 0.50261 0.91524
 C475 C 0.62273 0.52344 0.90531
 O476 O 0.66582 0.52943 0.87468
 C477 C 0.67101 0.50941 0.85964
 C478 C 0.64819 0.48068 0.86319
 C479 C 0.64835 0.45629 0.84854
 C480 C 0.67270 0.46173 0.82867
 C481 C 0.69619 0.49125 0.82352
 C482 C 0.69555 0.51538 0.83991
 H483 H 0.58999 0.43842 0.88480
 H484 H 0.55970 0.45587 0.91549
 H485 H 0.63199 0.54701 0.91046
 H486 H 0.63003 0.43392 0.85159
 H487 H 0.67269 0.44294 0.81640
 H488 H 0.71282 0.53817 0.83613
 C489 C 0.86798 0.34835 0.89224
 C490 C 0.84603 0.35526 0.88762
 C491 C 0.84463 0.37767 0.90539
 C492 C 0.86695 0.39392 0.92874
 C493 C 0.89078 0.38801 0.93407
 C494 C 0.89052 0.36421 0.91519
 O495 O 0.86513 0.32604 0.87286
 C496 C 0.84089 0.31889 0.85548
 C497 C 0.82843 0.33620 0.86354
 C498 C 0.80311 0.33281 0.84823
 C499 C 0.79000 0.31057 0.82365
 C500 C 0.80225 0.29216 0.81491
 C501 C 0.82817 0.29651 0.83117
 H502 H 0.82721 0.38289 0.90101
 H503 H 0.86612 0.41236 0.94061
 H504 H 0.90657 0.35701 0.91859
 H505 H 0.79378 0.34680 0.85495
 H506 H 0.77018 0.30762 0.81160
 H507 H 0.83813 0.28295 0.82512
 C508 C 0.53185 0.88721 0.38682
 C509 C 0.55503 0.88570 0.40093
 C510 C 0.56695 0.89849 0.43165
 C511 C 0.55467 0.91372 0.44847
 C512 C 0.53114 0.91657 0.43420
 C513 C 0.51967 0.90281 0.40270
 O514 O 0.52353 0.87310 0.35762
 C515 C 0.54209 0.86274 0.35310
 C516 C 0.56202 0.87014 0.37875
 C517 C 0.58420 0.86258 0.37858
 C518 C 0.58583 0.84665 0.35084
 C519 C 0.56508 0.83815 0.32449
 C520 C 0.54282 0.84622 0.32570
 H521 H 0.58527 0.89703 0.44219
 H522 H 0.56486 0.92463 0.47178
 H523 H 0.50131 0.90344 0.39106
 H524 H 0.59981 0.86892 0.39892
 H525 H 0.60288 0.84045 0.35011
 H526 H 0.52694 0.84025 0.30570
 C527 C 0.36167 0.49274 0.38805
 C528 C 0.36963 0.52123 0.37843
 C529 C 0.39444 0.54625 0.39080
 C530 C 0.41187 0.54171 0.41396
 C531 C 0.40418 0.51250 0.42436
 C532 C 0.37858 0.48770 0.41116
 O533 O 0.33734 0.47205 0.37315
 C534 C 0.32981 0.48786 0.35367
 C535 C 0.34884 0.51805 0.35602
 C536 C 0.34511 0.53876 0.33793
 C537 C 0.32064 0.52792 0.31665
 C538 C 0.30056 0.49683 0.31377
 C539 C 0.30539 0.47654 0.33253
 H540 H 0.40032 0.56845 0.38267
 H541 H 0.43168 0.56090 0.42325
 H542 H 0.37194 0.46516 0.41870
 H543 H 0.36041 0.56241 0.34021
 H544 H 0.31737 0.54381 0.30248
 H545 H 0.29048 0.45274 0.33104
 C546 C 0.11982 0.63526 0.37723
 C547 C 0.13298 0.62123 0.36115
 C548 C 0.12322 0.59105 0.36460
 C549 C 0.09901 0.57466 0.38568
 C550 C 0.08532 0.58867 0.40357
 C551 C 0.09627 0.61966 0.39908
 O552 O 0.13138 0.66372 0.36901
 C553 C 0.15247 0.66776 0.34746
 C554 C 0.15463 0.64255 0.34212
 C555 C 0.17516 0.64177 0.32040
 C556 C 0.19391 0.66795 0.30303
 C557 C 0.19132 0.69390 0.30715
 C558 C 0.17046 0.69383 0.32998
 H559 H 0.13380 0.58043 0.35141
 H560 H 0.09197 0.55131 0.38911
 H561 H 0.08611 0.63123 0.41107
 H562 H 0.17643 0.62165 0.31662
 H563 H 0.20958 0.66763 0.28537
 H564 H 0.16793 0.71327 0.33350
 C565 C 0.87912 0.50184 0.87472
 C566 C 0.86576 0.47393 0.86023
 C567 C 0.87567 0.45371 0.86525
 C568 C 0.90023 0.46261 0.88611
 C569 C 0.91421 0.49119 0.90169
 C570 C 0.90336 0.51102 0.89583
 O571 O 0.86676 0.51793 0.86612
 C572 C 0.84513 0.49978 0.84582
 C573 C 0.84342 0.47253 0.84147
 C574 C 0.82246 0.45033 0.82093
 C575 C 0.80270 0.45665 0.80389
 C576 C 0.80438 0.48486 0.80749
 C577 C 0.82584 0.50656 0.82909
 H578 H 0.86490 0.43189 0.85353
 H579 H 0.90804 0.44704 0.89062
 H580 H 0.91365 0.53303 0.90709
 H581 H 0.82154 0.42903 0.81787
 H582 H 0.78655 0.43982 0.78739
 H583 H 0.82785 0.52832 0.83243
 C584 C 0.47499 0.35791 0.89553
 C585 C 0.44824 0.33284 0.90142
 C586 C 0.42787 0.33219 0.92447
 C587 C 0.43523 0.35857 0.94204
 C588 C 0.46263 0.38474 0.93650
 C589 C 0.48299 0.38431 0.91319
 O590 O 0.49029 0.35413 0.87110
 C591 C 0.47278 0.32607 0.86140
 C592 C 0.44688 0.31213 0.87933
 C593 C 0.42477 0.28321 0.87265
 C594 C 0.42931 0.26805 0.84613
 C595 C 0.45558 0.28191 0.82666
 C596 C 0.47784 0.31132 0.83481
 H597 H 0.40680 0.31227 0.92828
 H598 H 0.41954 0.35876 0.95978
 H599 H 0.50380 0.40420 0.90810
 H600 H 0.40449 0.27284 0.88698
 H601 H 0.41201 0.24559 0.84047
 H602 H 0.49795 0.32268 0.82027
 C603 C 0.63527 0.11473 0.88206
 C604 C 0.66174 0.12008 0.89509
 C605 C 0.66392 0.10655 0.92383
 C606 C 0.63770 0.08667 0.94006
 C607 C 0.60959 0.08031 0.92744
 C608 C 0.60875 0.09479 0.89762
 O609 O 0.63826 0.12986 0.85421
 C610 C 0.66732 0.14491 0.84956
 C611 C 0.68257 0.13953 0.87392
 C612 C 0.71303 0.15201 0.87366
 C613 C 0.72848 0.17060 0.84698
 C614 C 0.71345 0.17662 0.82137
 C615 C 0.68237 0.16385 0.82291
 H616 H 0.68511 0.11090 0.93328
 H617 H 0.63967 0.07535 0.96165
 H618 H 0.58829 0.09162 0.88718
 H619 H 0.72445 0.14726 0.89306
 H620 H 0.75226 0.18032 0.84624
 H621 H 0.67031 0.16777 0.80352
 C622 C 0.12661 0.47969 0.40634
 C623 C 0.12246 0.45134 0.40835
 C624 C 0.10128 0.42962 0.42871
 C625 C 0.08320 0.43720 0.44753
 C626 C 0.08663 0.46635 0.44620
 C627 C 0.10938 0.48808 0.42563
 O628 O 0.14672 0.49622 0.38361
 C629 C 0.15543 0.47782 0.37115
 C630 C 0.14132 0.45019 0.38575
 C631 C 0.14610 0.42706 0.37606
 C632 C 0.16609 0.43244 0.35002
 C633 C 0.18074 0.46053 0.33382
 C634 C 0.17546 0.48370 0.34487
 H635 H 0.09839 0.40738 0.42964
 H636 H 0.06694 0.42032 0.46371
 H637 H 0.11235 0.51023 0.42281
 H638 H 0.13452 0.40545 0.38784
 H639 H 0.16966 0.41434 0.34212
 H640 H 0.18601 0.50528 0.33295
 C641 C 0.54770 0.65824 0.38317
 C642 C 0.57630 0.68061 0.38803
 C643 C 0.59495 0.67883 0.41143
 C644 C 0.58367 0.65295 0.43073
 C645 C 0.55428 0.62940 0.42622
 C646 C 0.53609 0.63208 0.40188
 O647 O 0.53364 0.66470 0.35993
 C648 C 0.55387 0.69170 0.34988
 C649 C 0.58035 0.70230 0.36625
 C650 C 0.60469 0.72992 0.35961
 C651 C 0.60168 0.74739 0.33504
 C652 C 0.57457 0.73723 0.31780
 C653 C 0.55026 0.70890 0.32550
 H654 H 0.61738 0.69678 0.41478
 H655 H 0.59791 0.65108 0.44899
 H656 H 0.51352 0.61456 0.39806
 H657 H 0.62530 0.73773 0.37283
 H658 H 0.62050 0.76900 0.32969
 H659 H 0.52932 0.70043 0.31276
 C660 C 0.34709 0.87912 0.38738
 C661 C 0.32772 0.88910 0.38023
 C662 C 0.33137 0.91604 0.39212
 C663 C 0.35616 0.93366 0.41197
 C664 C 0.37680 0.92412 0.42016
 C665 C 0.37156 0.89590 0.40790
 O666 O 0.34045 0.85368 0.37183
 C667 C 0.31629 0.84747 0.35466
 C668 C 0.30747 0.86834 0.35923
 C669 C 0.28311 0.86665 0.34321
 C670 C 0.26728 0.84260 0.32130
 C671 C 0.27621 0.82102 0.31537
 C672 C 0.30104 0.82347 0.33262
 H673 H 0.31586 0.92346 0.38598
 H674 H 0.35859 0.95438 0.42169
 H675 H 0.38690 0.88791 0.41235
 H676 H 0.27671 0.88346 0.34712
 H677 H 0.24853 0.84128 0.30827
 H678 H 0.30856 0.80753 0.32858
 C679 C 0.53280 0.89076 0.11881
 C680 C 0.56175 0.89876 0.11251
 C681 C 0.57868 0.91927 0.08825
 C682 C 0.56523 0.93208 0.06956
 C683 C 0.53546 0.92448 0.07554
 C684 C 0.51904 0.90362 0.10075
 O685 O 0.52068 0.87046 0.14272
 C686 C 0.54254 0.86569 0.15171
 C687 C 0.56813 0.88263 0.13405
 C688 C 0.59390 0.88162 0.13953
 C689 C 0.59336 0.86235 0.16429
 C690 C 0.56723 0.84429 0.18278
 C691 C 0.54137 0.84596 0.17625
 H692 H 0.60142 0.92514 0.08379
 H693 H 0.57812 0.94824 0.05063
 H694 H 0.49627 0.89737 0.10576
 H695 H 0.61377 0.89525 0.12532
 H696 H 0.61330 0.86130 0.16878
 H697 H 0.52114 0.83262 0.19003
 C698 C 0.35467 0.49275 0.11094
 C699 C 0.33044 0.46561 0.10353
 C700 C 0.33135 0.44541 0.08103
 C701 C 0.35844 0.45333 0.06569
 C702 C 0.38387 0.48104 0.07293
 C703 C 0.38189 0.50130 0.09550
 O704 O 0.34940 0.50753 0.13498
 C705 C 0.32128 0.48925 0.14291
 C706 C 0.30878 0.46335 0.12426
 C707 C 0.28040 0.44005 0.12985
 C708 C 0.26435 0.44324 0.15617
 C709 C 0.27669 0.46946 0.17620
 C710 C 0.30540 0.49314 0.16903
 H711 H 0.31207 0.42398 0.07612
 H712 H 0.35981 0.43770 0.04851
 H713 H 0.40117 0.52230 0.10192
 H714 H 0.27128 0.41971 0.11517
 H715 H 0.24247 0.42496 0.16150
 H716 H 0.31561 0.51302 0.18451
 C717 C 0.12053 0.63496 0.10987
 C718 C 0.14757 0.63868 0.10043
 C719 C 0.15093 0.62262 0.07432
 C720 C 0.12538 0.60179 0.05735
 C721 C 0.09715 0.59721 0.06690
 C722 C 0.09481 0.61416 0.09357
 O723 O 0.12214 0.65235 0.13537
 C724 C 0.15080 0.66728 0.14227
 C725 C 0.16731 0.65963 0.12174
 C726 C 0.19768 0.67195 0.12524
 C727 C 0.21158 0.69299 0.15096
 C728 C 0.19510 0.70150 0.17230
 C729 C 0.16423 0.68845 0.16768
 H730 H 0.17242 0.62587 0.06739
 H731 H 0.12748 0.58873 0.03730
 H732 H 0.07361 0.61124 0.10136
 H733 H 0.21018 0.66543 0.10894
 H734 H 0.23520 0.70275 0.15412
 H735 H 0.15096 0.69419 0.18373
 C736 C 0.48085 0.13742 0.59864
 C737 C 0.45495 0.13712 0.59126
 C738 C 0.43475 0.11769 0.56799
 C739 C 0.44127 0.09740 0.55194
 C740 C 0.46762 0.09696 0.55927
 C741 C 0.48799 0.11763 0.58252
 O742 O 0.49570 0.15601 0.62355
 C743 C 0.47873 0.16756 0.63212
 C744 C 0.45357 0.15668 0.61302
 C745 C 0.43145 0.16367 0.61923
 C746 C 0.43511 0.18226 0.64660
 C747 C 0.46062 0.19360 0.66701
 C748 C 0.48311 0.18666 0.65926
 H749 H 0.41427 0.11753 0.56314
 H750 H 0.42552 0.08152 0.53432
 H751 H 0.50787 0.11714 0.58913
 H752 H 0.41163 0.15436 0.60421
 H753 H 0.41775 0.18737 0.65236
 H754 H 0.50240 0.19438 0.67498
 C755 C 0.63514 0.52095 0.63088
 C756 C 0.65968 0.54889 0.63052
 C757 C 0.66152 0.57204 0.61129
 C758 C 0.63707 0.56611 0.59151
 C759 C 0.61141 0.53759 0.59171
 C760 C 0.61035 0.51472 0.61186
 O761 O 0.63834 0.50192 0.65012
 C762 C 0.66544 0.51825 0.66224
 C763 C 0.67932 0.54719 0.65116
 C764 C 0.70774 0.56821 0.66077
 C765 C 0.72253 0.55903 0.68268
 C766 C 0.70893 0.52918 0.69413
 C767 C 0.67992 0.50850 0.68368
 H768 H 0.68116 0.59377 0.61126
 H769 H 0.63798 0.58371 0.57617
 H770 H 0.59108 0.49270 0.61213
 H771 H 0.71817 0.59086 0.65171
 H772 H 0.74476 0.57510 0.69028
 H773 H 0.66892 0.48562 0.69205
 C774 C 0.87476 0.35925 0.61763
 C775 C 0.88060 0.33619 0.61344
 C776 C 0.90474 0.33891 0.59559
 C777 C 0.92380 0.36662 0.58143
 C778 C 0.91834 0.39081 0.58513
 C779 C 0.89326 0.38702 0.60320
 O780 O 0.85162 0.35226 0.63738
 C781 C 0.84274 0.32419 0.64578
 C782 C 0.85975 0.31342 0.63155
 C783 C 0.85561 0.28527 0.63801
 C784 C 0.83342 0.26759 0.66069
 C785 C 0.81589 0.27820 0.67653
 C786 C 0.82017 0.30674 0.66837
 H787 H 0.90903 0.32049 0.59312
 H788 H 0.94285 0.36932 0.56752
 H789 H 0.88889 0.40531 0.60667
 H790 H 0.86949 0.27747 0.62667
 H791 H 0.83035 0.24579 0.66651
 H792 H 0.80751 0.31562 0.68052
   
