data_POSCAR
  _audit_creation_date              2014-09-24
  _audit_creation_method            'ToBaCCo'
  _symmetry_space_group_name_H-M    'P1'
  _symmetry_Int_Tables_number       1
  _symmetry_cell_setting            triclinic
  loop_
  _symmetry_equiv_pos_as_xyz
 x,y,z
_cell_length_a 32.9591
_cell_length_b 32.0280
_cell_length_c 25.9362
_cell_angle_alpha 90.502700
_cell_angle_beta 89.485600
_cell_angle_gamma 118.214600
loop_
  _atom_site_label
  _atom_site_type_symbol
  _atom_site_fract_x
  _atom_site_fract_y
  _atom_site_fract_z
C1 C 0.06293 0.53874 0.12672
 C2 C 0.06070 0.49485 0.12740
 C3 C 0.05538 0.47932 0.07662
 N4 N 0.05364 0.51165 0.04517
 C5 C 0.05873 0.54813 0.07557
 C6 C 0.05753 0.43900 0.05834
 C7 C 0.04228 0.42087 0.00839
 C8 C 0.05615 0.39273 -0.01956
 C9 C 0.03103 0.38029 -0.06435
 C10 C 0.00176 0.40021 -0.06188
 N11 N 0.00989 0.42622 -0.01818
 C12 C -0.03175 0.39415 -0.09900
 C13 C -0.03545 0.43438 -0.11555
 C14 C -0.04695 0.44104 -0.16496
 C15 C -0.04591 0.48424 -0.16529
 C16 C -0.03356 0.50305 -0.11616
 N17 N -0.02490 0.47352 -0.08657
 C18 C -0.02652 0.54848 -0.10046
 C19 C 0.00864 0.57444 -0.06443
 C20 C 0.04042 0.62210 -0.06819
 C21 C 0.06550 0.63438 -0.02338
 C22 C 0.04934 0.59348 0.00562
 N23 N 0.01541 0.55681 -0.02012
 C24 C 0.06362 0.59099 0.05602
 H25 H 0.06737 0.56111 0.15996
 H26 H 0.06322 0.47677 0.16129
 H27 H -0.00563 0.52301 -0.00553
 H28 H 0.08222 0.38289 -0.00924
 H29 H 0.03481 0.35992 -0.09577
 H30 H -0.05213 0.41882 -0.19853
 H31 H -0.04965 0.50142 -0.19927
 H32 H 0.09272 0.66927 -0.01342
 H33 H -0.00913 0.44248 -0.00465
 H34 H 0.04508 0.64560 -0.10004
 C35 C 0.54243 0.41455 -0.07352
 C36 C 0.58619 0.45232 -0.07274
 C37 C 0.58175 0.49163 -0.05804
 N38 N 0.53682 0.47920 -0.05007
 C39 C 0.51253 0.43214 -0.06000
 C40 C 0.61815 0.53852 -0.05375
 C41 C 0.61212 0.57405 -0.02742
 C42 C 0.63913 0.62249 -0.03408
 C43 C 0.62619 0.64443 0.00357
 C44 C 0.59150 0.60878 0.03202
 N45 N 0.58262 0.56599 0.01235
 C46 C 0.57080 0.61576 0.07694
 C47 C 0.52750 0.58055 0.09425
 C48 C 0.50681 0.57998 0.14128
 C49 C 0.46262 0.54336 0.13878
 C50 C 0.45851 0.52224 0.09097
 N51 N 0.49802 0.54484 0.06395
 C52 C 0.41747 0.48710 0.06972
 C53 C 0.41720 0.46123 0.02562
 C54 C 0.37951 0.43643 -0.00584
 C55 C 0.39296 0.41433 -0.04265
 C56 C 0.43821 0.42544 -0.03182
 N57 N 0.45304 0.45491 0.00928
 C58 C 0.46372 0.40593 -0.05706
 H59 H 0.53413 0.37821 -0.08152
 H60 H 0.61766 0.45063 -0.08071
 H61 H 0.48420 0.46585 0.02837
 H62 H 0.66585 0.64025 -0.06267
 H63 H 0.64087 0.68229 0.00946
 H64 H 0.52151 0.60362 0.17381
 H65 H 0.43635 0.53367 0.16834
 H66 H 0.37164 0.39217 -0.07363
 H67 H 0.56181 0.53310 0.02905
 H68 H 0.34588 0.43444 -0.00258
 C69 C 0.42500 0.87684 0.08182
 C70 C 0.46903 0.88237 0.08257
 C71 C 0.49838 0.92919 0.06985
 N72 N 0.47371 0.95215 0.06089
 C73 C 0.42895 0.92038 0.06845
 C74 C 0.54712 0.95147 0.06943
 C75 C 0.57338 0.99592 0.04537
 C76 C 0.61939 1.02717 0.05488
 C77 C 0.63267 1.06356 0.01995
 C78 C 0.59431 1.05371 -0.00949
 N79 N 0.55832 1.01265 0.00635
 C80 C 0.59365 1.08011 -0.05233
 C81 C 0.55240 1.07444 -0.07379
 C82 C 0.54800 1.08908 -0.12248
 C83 C 0.50339 1.08111 -0.12611
 C84 C 0.48272 1.06383 -0.07858
 N85 N 0.51265 1.05900 -0.04708
 C86 C 0.43811 1.05478 -0.06265
 C87 C 0.41841 1.02800 -0.01755
 C88 C 0.38584 1.03154 0.01384
 C89 C 0.37350 0.99714 0.05083
 C90 C 0.39895 0.97366 0.04112
 N91 N 0.42713 0.99344 0.00020
 C92 C 0.39265 0.93197 0.06595
 H93 H 0.39380 0.84429 0.08944
 H94 H 0.47810 0.85479 0.09081
 H95 H 0.44697 0.98026 -0.01835
 H96 H 0.64128 1.02408 0.08377
 H97 H 0.66675 1.09348 0.01623
 H98 H 0.57405 1.10342 -0.15239
 H99 H 0.48819 1.08692 -0.16023
 H100 H 0.34829 0.98993 0.08113
 H101 H 0.52669 0.99444 -0.01216
 H102 H 0.37234 1.05631 0.01045
 C103 C 0.85855 0.39632 0.55187
 C104 C 0.86109 0.44041 0.55196
 C105 C 0.90628 0.47248 0.53996
 N106 N 0.93119 0.44945 0.53196
 C107 C 0.90220 0.40299 0.53958
 C108 C 0.92536 0.52235 0.54053
 C109 C 0.96929 0.55166 0.51895
 C110 C 0.99615 0.59948 0.52932
 C111 C 1.03361 0.61551 0.49685
 C112 C 1.02941 0.57676 0.46815
 N113 N 0.98989 0.53806 0.48196
 C114 C 1.05754 0.57841 0.42555
 C115 C 1.05459 0.53626 0.40383
 C116 C 1.07219 0.53181 0.35647
 C117 C 1.06737 0.48693 0.35432
 C118 C 1.04896 0.46581 0.40125
 N119 N 1.04041 0.49572 0.43097
 C120 C 1.04331 0.42130 0.41815
 C121 C 1.01376 0.39783 0.46012
 C122 C 1.01665 0.36424 0.49110
 C123 C 0.98098 0.34944 0.52601
 C124 C 0.95732 0.37445 0.51551
 N125 N 0.97787 0.40435 0.47576
 C126 C 0.91637 0.36773 0.54028
 H127 H 0.82806 0.36322 0.56000
 H128 H 0.83288 0.44784 0.56006
 H129 H 0.96549 0.42477 0.45718
 H130 H 0.98924 0.62103 0.55671
 H131 H 1.05961 0.65213 0.49376
 H132 H 1.08727 0.55751 0.32616
 H133 H 1.07676 0.47192 0.32173
 H134 H 0.97378 0.32363 0.55607
 H135 H 0.97487 0.50556 0.46273
 H136 H 1.04227 0.35219 0.48944
 C137 C 0.45569 0.53190 0.36684
 C138 C 0.49854 0.57097 0.36777
 C139 C 0.51503 0.57462 0.41753
 N140 N 0.48374 0.53930 0.44694
 C141 C 0.44754 0.51313 0.41605
 C142 C 0.55740 0.61079 0.43611
 C143 C 0.57667 0.60637 0.48308
 C144 C 0.61138 0.64362 0.50976
 C145 C 0.62322 0.62424 0.55026
 C146 C 0.59493 0.57554 0.54799
 N147 N 0.56681 0.56501 0.50663
 C148 C 0.59814 0.54198 0.58088
 C149 C 0.56450 0.49385 0.58174
 C150 C 0.56937 0.45712 0.60359
 C151 C 0.52728 0.41737 0.60015
 C152 C 0.49758 0.43147 0.57817
 N153 N 0.52058 0.47807 0.56658
 C154 C 0.44951 0.40329 0.57223
 C155 C 0.42382 0.41950 0.54303
 C156 C 0.37655 0.40225 0.54636
 C157 C 0.36460 0.42235 0.50663
 C158 C 0.40499 0.45178 0.48074
 N159 N 0.44100 0.45049 0.50359
 C160 C 0.40726 0.47310 0.43282
 H161 H 0.43359 0.51862 0.33353
 H162 H 0.51582 0.59339 0.33517
 H163 H 0.47407 0.46405 0.48809
 H164 H 0.62712 0.68096 0.50069
 H165 H 0.65056 0.64411 0.57724
 H166 H 0.59975 0.45813 0.62013
 H167 H 0.51989 0.38235 0.61253
 H168 H 0.33000 0.41504 0.49680
 H169 H 0.54573 0.53128 0.49196
 H170 H 0.35291 0.37683 0.57364
 C171 C 0.42017 -0.13031 0.42955
 C172 C 0.46426 -0.12426 0.43166
 C173 C 0.49266 -0.07725 0.44495
 N174 N 0.46707 -0.05477 0.45228
 C175 C 0.42284 -0.08697 0.44213
 C176 C 0.54141 -0.05483 0.44922
 C177 C 0.56477 -0.01260 0.47877
 C178 C 0.61009 0.02230 0.47174
 C179 C 0.61990 0.05504 0.51082
 C180 C 0.58014 0.03971 0.54007
 N181 N 0.54664 -0.00130 0.52018
 C182 C 0.57546 0.06248 0.58478
 C183 C 0.53219 0.05258 0.60448
 C184 C 0.52411 0.06625 0.65266
 C185 C 0.47957 0.05889 0.65227
 C186 C 0.46271 0.04217 0.60336
 N187 N 0.49468 0.03767 0.57465
 C188 C 0.42164 0.03769 0.58241
 C189 C 0.40483 0.01365 0.53530
 C190 C 0.37443 0.01927 0.50323
 C191 C 0.36519 -0.01231 0.46317
 C192 C 0.38962 -0.03687 0.47251
 N193 N 0.41456 -0.02002 0.51588
 C194 C 0.38539 -0.07688 0.44459
 H195 H 0.38959 -0.16341 0.42181
 H196 H 0.47379 -0.15198 0.42594
 H197 H 0.43289 -0.03470 0.53418
 H198 H 0.63363 0.02430 0.44133
 H199 H 0.65243 0.08663 0.51681
 H200 H 0.54835 0.08147 0.68397
 H201 H 0.46234 0.06662 0.68372
 H202 H 0.34245 -0.01719 0.43121
 H203 H 0.51430 -0.02266 0.53639
 H204 H 0.36046 0.04358 0.50807
 O205 O 0.25070 0.38737 0.28564
 O206 O 0.16664 0.37693 0.18970
 O207 O 0.25536 0.40684 0.18745
 O208 O 0.16453 0.37074 0.28901
 O209 O 0.18612 0.44646 0.30299
 O210 O 0.27127 0.48128 0.20065
 O211 O 0.18364 0.45167 0.20314
 O212 O 0.27192 0.46319 0.29819
 Cu213 Cu 0.20777 0.37808 0.23697
 Cu214 Cu 0.23005 0.46800 0.25277
 C215 C 0.27601 0.42642 0.30776
 C216 C 0.16025 0.41204 0.18032
 C217 C 0.27807 0.45074 0.17644
 C218 C 0.15968 0.40323 0.31251
 O219 O 0.64206 0.79075 0.20813
 O220 O 0.63306 0.86632 0.31003
 O221 O 0.63707 0.78674 0.30650
 O222 O 0.63370 0.86716 0.20774
 O223 O 0.55770 0.82721 0.20744
 O224 O 0.56111 0.74626 0.30526
 O225 O 0.55713 0.82610 0.30759
 O226 O 0.56614 0.74982 0.20527
 Cu227 Cu 0.64409 0.83251 0.25855
 Cu228 Cu 0.55292 0.78339 0.25619
 C229 C 0.60569 0.75681 0.19012
 C230 C 0.59389 0.85900 0.32649
 C231 C 0.59963 0.75209 0.32169
 C232 C 0.59512 0.86047 0.19042
 O233 O 0.22974 0.82942 0.20302
 O234 O 0.15660 0.74654 0.30362
 O235 O 0.22980 0.82690 0.30450
 O236 O 0.15238 0.75223 0.20408
 O237 O 0.19224 0.71312 0.19667
 O238 O 0.27167 0.78975 0.29908
 O239 O 0.19762 0.70848 0.29712
 O240 O 0.27143 0.79207 0.19842
 Cu241 Cu 0.18834 0.79284 0.25425
 Cu242 Cu 0.23731 0.74696 0.24681
 C243 C 0.26289 0.82467 0.18361
 C244 C 0.16541 0.71385 0.31787
 C245 C 0.26279 0.82058 0.32009
 C246 C 0.15866 0.71986 0.18329
 O247 O 0.84028 0.60474 0.68686
 O248 O 0.77820 0.60479 0.80657
 O249 O 0.85699 0.61391 0.78883
 O250 O 0.76341 0.61021 0.71278
 O251 O 0.73256 0.53245 0.70410
 O252 O 0.82417 0.53571 0.78971
 O253 O 0.74067 0.52653 0.80304
 O254 O 0.80937 0.52687 0.69089
 Cu255 Cu 0.81396 0.61584 0.74672
 Cu256 Cu 0.77339 0.52262 0.74678
 C257 C 0.83613 0.56565 0.66939
 C258 C 0.74787 0.56521 0.82425
 C259 C 0.85630 0.57606 0.80367
 C260 C 0.73169 0.57127 0.69621
 O261 O 0.36202 0.23366 0.70881
 O262 O 0.35848 0.15073 0.80815
 O263 O 0.36866 0.23593 0.81054
 O264 O 0.35366 0.14875 0.70942
 O265 O 0.42935 0.17999 0.70341
 O266 O 0.44437 0.26723 0.80464
 O267 O 0.43420 0.18156 0.80331
 O268 O 0.43789 0.26568 0.70531
 Cu269 Cu 0.35306 0.18976 0.75971
 Cu270 Cu 0.44407 0.22673 0.75338
 C271 C 0.40049 0.26360 0.69015
 C272 C 0.39567 0.15162 0.82210
 C273 C 0.40875 0.26576 0.82532
 C274 C 0.38924 0.14902 0.68998
 O275 O 0.82801 0.21866 0.79489
 O276 O 0.72854 0.15540 0.70826
 O277 O 0.81484 0.21377 0.69479
 O278 O 0.73912 0.16167 0.80846
 O279 O 0.72774 0.22429 0.81193
 O280 O 0.80229 0.27570 0.69957
 O281 O 0.71647 0.21762 0.71104
 O282 O 0.81497 0.28027 0.79668
 Cu283 Cu 0.77901 0.18112 0.75175
 Cu284 Cu 0.76349 0.25527 0.75561
 C285 C 0.83889 0.26060 0.80953
 C286 C 0.70651 0.17667 0.69380
 C287 C 0.82106 0.25354 0.67784
 C288 C 0.72076 0.18464 0.82956
 N289 N 0.09224 0.36354 0.12571
 N290 N 0.06483 0.37044 0.09407
 C291 C 0.07947 0.41737 0.09064
 C292 C 0.11796 0.44137 0.12149
 C293 C 0.12465 0.40592 0.14314
 H294 H 0.13839 0.47923 0.12714
 H295 H 0.08825 0.33027 0.13564
 H296 H 0.03629 0.34333 0.07584
 N297 N 0.64930 0.72238 0.14360
 N298 N 0.64004 0.68479 0.11469
 C299 C 0.59448 0.66178 0.10505
 C300 C 0.57402 0.68637 0.12846
 C301 C 0.60985 0.72405 0.15308
 H302 H 0.53791 0.67715 0.12933
 H303 H 0.68180 0.74514 0.15843
 H304 H 0.66433 0.67415 0.10370
 N305 N 0.27279 0.86889 0.10258
 N306 N 0.30649 0.89529 0.07064
 C307 C 0.34676 0.90074 0.08962
 C308 C 0.33785 0.87559 0.13540
 C309 C 0.29063 0.85623 0.14211
 H310 H 0.36221 0.87294 0.16109
 H311 H 0.23809 0.85897 0.09668
 H312 H 0.30168 0.90908 0.03627
 N313 N 0.87707 0.59666 0.58568
 N314 N 0.89934 0.58444 0.55111
 C315 C 0.90022 0.54488 0.56719
 C316 C 0.87682 0.53111 0.61382
 C317 C 0.86277 0.56481 0.62408
 H318 H 0.87194 0.50161 0.63785
 H319 H 0.87140 0.62599 0.58257
 H320 H 0.91361 0.60302 0.51710
 N321 N 0.37524 0.28150 0.60727
 N322 N 0.38922 0.31776 0.57549
 C323 C 0.42472 0.35587 0.59715
 C324 C 0.43371 0.34290 0.64492
 C325 C 0.40189 0.29557 0.64945
 H326 H 0.45969 0.36454 0.67262
 H327 H 0.34922 0.24730 0.59909
 H328 H 0.37537 0.31582 0.53893
 N329 N 0.65077 0.17848 0.63171
 N330 N 0.61767 0.14879 0.60132
 C331 C 0.61503 0.10566 0.60489
 C332 C 0.64797 0.10781 0.63925
 C333 C 0.66968 0.15478 0.65557
 H334 H 0.65321 0.07892 0.65297
 H335 H 0.65937 0.21410 0.63681
 H336 H 0.59587 0.15749 0.58026
 N337 N 0.35468 0.07968 0.87606
 N338 N 0.36679 0.05252 0.90786
 C339 C 0.41325 0.07337 0.90990
 C340 C 0.43131 0.11439 0.88019
 C341 C 0.39383 0.11666 0.85951
 H342 H 0.46708 0.14017 0.87477
 H343 H 0.32107 0.07109 0.86572
 H344 H 0.34329 0.01986 0.92331
 N345 N 0.73848 0.59156 0.91177
 N346 N 0.70457 0.58355 0.94435
 C347 C 0.66431 0.55169 0.92324
 C348 C 0.67339 0.53798 0.87540
 C349 C 0.72074 0.56434 0.86970
 H350 H 0.64892 0.51443 0.84742
 H351 H 0.77310 0.61538 0.91834
 H352 H 0.70912 0.60026 0.98019
 N353 N 0.90478 0.27026 0.86431
 N354 N 0.94091 0.30773 0.89001
 C355 C 0.93907 0.34828 0.87962
 C356 C 0.89988 0.33602 0.84988
 C357 C 0.88028 0.28792 0.84059
 H358 H 0.88494 0.35808 0.83836
 H359 H 0.89776 0.23488 0.86531
 H360 H 0.96209 0.30249 0.91578
 N361 N 0.62455 0.91028 0.40384
 N362 N 0.60947 0.93352 0.43857
 C363 C 0.56738 0.92615 0.42353
 C364 C 0.55492 0.89760 0.37935
 C365 C 0.59134 0.88858 0.36862
 H366 H 0.52426 0.88620 0.35630
 H367 H 0.65556 0.90903 0.40646
 H368 H 0.62704 0.95029 0.47217
 N369 N 0.31347 0.38872 0.35723
 N370 N 0.34791 0.40095 0.38951
 C371 C 0.36764 0.44803 0.39775
 C372 C 0.34451 0.46682 0.36946
 C373 C 0.31032 0.42771 0.34431
 H374 H 0.35151 0.50336 0.36750
 H375 H 0.29267 0.35412 0.34422
 H376 H 0.35792 0.37732 0.40522
 N377 N 0.15515 0.69272 0.41000
 N378 N 0.12497 0.65459 0.43998
 C379 C 0.09234 0.62281 0.40859
 C380 C 0.10081 0.64011 0.35834
 C381 C 0.14011 0.68362 0.36116
 H382 H 0.08081 0.62382 0.32416
 H383 H 0.18497 0.72189 0.42336
 H384 H 0.12973 0.65039 0.47899
 N385 N 0.91975 0.61977 0.86475
 N386 N 0.95224 0.61237 0.89133
 C387 C 0.94709 0.56905 0.87827
 C388 C 0.90865 0.54726 0.84570
 C389 C 0.89359 0.58039 0.83760
 H390 H 0.89192 0.51149 0.83078
 H391 H 0.91624 0.65048 0.86711
 H392 H 0.97305 0.63569 0.91968
 N393 N 0.38144 0.28820 0.90452
 N394 N 0.39748 0.32684 0.93799
 C395 C 0.43899 0.36016 0.92061
 C396 C 0.45059 0.34271 0.87656
 C397 C 0.41360 0.29815 0.86780
 H398 H 0.48037 0.36097 0.85179
 H399 H 0.35016 0.25720 0.90834
 H400 H 0.38029 0.32789 0.97159
 N401 N 0.68197 0.19305 0.90820
 N402 N 0.64930 0.16530 0.94044
 C403 C 0.63686 0.11987 0.92860
 C404 C 0.66295 0.11848 0.88696
 C405 C 0.69094 0.16581 0.87508
 H406 H 0.65871 0.08770 0.86521
 H407 H 0.69627 0.22992 0.90755
 H408 H 0.63377 0.17727 0.96792
 N409 N 0.08705 0.34844 0.35895
 N410 N 0.05404 0.35408 0.38809
 C411 C 0.06905 0.40106 0.39463
 C412 C 0.11217 0.42563 0.37176
 C413 C 0.12175 0.39195 0.34923
 H414 H 0.13373 0.46365 0.37011
 H415 H 0.08309 0.31629 0.34420
 H416 H 0.02164 0.32648 0.39772
 N417 N 0.63977 0.71492 0.36867
 N418 N 0.62862 0.67730 0.39770
 C419 C 0.58270 0.65514 0.40572
 C420 C 0.56384 0.67996 0.38049
 C421 C 0.60120 0.71744 0.35734
 H422 H 0.52798 0.67151 0.37849
 H423 H 0.67310 0.73755 0.35566
 H424 H 0.65209 0.66648 0.41061
 N425 N 0.26826 0.86110 0.40257
 N426 N 0.30208 0.88908 0.43756
 C427 C 0.34274 0.89336 0.42056
 C428 C 0.33517 0.86670 0.37521
 C429 C 0.28839 0.84797 0.36517
 H430 H 0.36060 0.86425 0.35052
 H431 H 0.23358 0.85261 0.40536
 H432 H 0.29556 0.90249 0.47167
 N433 N 0.62516 0.90882 0.11113
 N434 N 0.61178 0.93126 0.07846
 C435 C 0.57182 0.92869 0.09546
 C436 C 0.55905 0.90276 0.14086
 C437 C 0.59373 0.89086 0.14922
 H438 H 0.52913 0.89417 0.16486
 H439 H 0.65461 0.90475 0.10643
 H440 H 0.62951 0.94726 0.04460
 N441 N 0.32746 0.51060 0.11319
 N442 N 0.36427 0.52031 0.08501
 C443 C 0.37398 0.48415 0.08885
 C444 C 0.34172 0.44942 0.12056
 C445 C 0.31305 0.46806 0.13556
 H446 H 0.34188 0.41779 0.13460
 H447 H 0.31383 0.53386 0.11885
 H448 H 0.38368 0.55219 0.06559
 N449 N 0.09234 0.69888 0.12522
 N450 N 0.06745 0.66528 0.09188
 C451 C 0.08448 0.63455 0.08829
 C452 C 0.12242 0.64965 0.12053
 C453 C 0.12594 0.69045 0.14343
 H454 H 0.14372 0.63287 0.12712
 H455 H 0.08586 0.72675 0.13573
 H456 H 0.03860 0.66294 0.07295
 N457 N 0.34374 0.07322 0.64221
 N458 N 0.35237 0.04344 0.61448
 C459 C 0.39825 0.06241 0.60756
 C460 C 0.41959 0.10662 0.63102
 C461 C 0.38397 0.11173 0.65322
 H462 H 0.45612 0.13065 0.63393
 H463 H 0.31104 0.06615 0.65523
 H464 H 0.32736 0.00988 0.60258
 N465 N 0.67452 0.59977 0.68641
 N466 N 0.63927 0.59177 0.65676
 C467 C 0.63464 0.55928 0.62074
 C468 C 0.66817 0.54528 0.62844
 C469 C 0.69255 0.57188 0.67060
 H470 H 0.67454 0.52024 0.60615
 H471 H 0.68539 0.62331 0.71763
 H472 H 0.61847 0.60803 0.66158
 N473 N 0.85862 0.25037 0.59495
 N474 N 0.88246 0.28025 0.55786
 C475 C 0.88945 0.32403 0.57105
 C476 C 0.86894 0.32169 0.61849
 C477 C 0.84976 0.27455 0.63213
 H478 H 0.86821 0.35031 0.64028
 H479 H 0.84771 0.21400 0.59400
 H480 H 0.89307 0.27049 0.52385
   
