data_POSCAR
  _audit_creation_date              2014-09-24
  _audit_creation_method            'ToBaCCo'
  _symmetry_space_group_name_H-M    'P1'
  _symmetry_Int_Tables_number       1
  _symmetry_cell_setting            triclinic
  loop_
  _symmetry_equiv_pos_as_xyz
 x,y,z
_cell_length_a 41.2695
_cell_length_b 40.6842
_cell_length_c 41.2837
_cell_angle_alpha 89.883400
_cell_angle_beta 90.035100
_cell_angle_gamma 89.983000
loop_
  _atom_site_label
  _atom_site_type_symbol
  _atom_site_fract_x
  _atom_site_fract_y
  _atom_site_fract_z
C1 C 0.60061 0.64867 0.62540
 C2 C 0.60085 0.62453 0.64966
 C3 C 0.62508 0.60037 0.64994
 C4 C 0.64907 0.60039 0.62590
 C5 C 0.64883 0.62453 0.60164
 C6 C 0.62460 0.64865 0.60141
 H7 H 0.58223 0.62461 0.66822
 H8 H 0.66786 0.58173 0.62602
 H9 H 0.62441 0.66733 0.58263
 C10 C 0.89991 0.35070 0.12503
 C11 C 0.89965 0.37479 0.14927
 C12 C 0.87540 0.39889 0.14951
 C13 C 0.85138 0.39893 0.12551
 C14 C 0.85160 0.37488 0.10127
 C15 C 0.87585 0.35078 0.10103
 H16 H 0.91822 0.37483 0.16789
 H17 H 0.83261 0.41758 0.12570
 H18 H 0.87596 0.33218 0.08222
 C19 C 0.39896 0.14925 -0.12516
 C20 C 0.39871 0.12513 -0.14933
 C21 C 0.37445 0.10106 -0.14957
 C22 C 0.35042 0.10110 -0.12561
 C23 C 0.35065 0.12521 -0.10142
 C24 C 0.37492 0.14928 -0.10121
 H25 H 0.41731 0.12510 -0.16788
 H26 H 0.33164 0.08247 -0.12578
 H27 H 0.37511 0.16794 -0.08248
 C28 C 0.09940 0.85011 0.37506
 C29 C 0.12343 0.85015 0.39909
 C30 C 0.14761 0.87432 0.39888
 C31 C 0.14777 0.89847 0.37464
 C32 C 0.12378 0.89847 0.35061
 C33 C 0.09961 0.87430 0.35082
 H34 H 0.12337 0.83148 0.41790
 H35 H 0.16648 0.91718 0.37447
 H36 H 0.08106 0.87437 0.33217
 N37 N 0.08710 0.17826 0.11090
 N38 N 0.07475 0.16516 0.13725
 C39 C 0.04844 0.18254 0.14610
 C40 C 0.04403 0.20800 0.12415
 C41 C 0.06914 0.20442 0.10213
 H42 H 0.03375 0.17719 0.16710
 H43 H 0.07392 0.21950 0.08110
 Cu44 Cu 0.09423 0.12667 0.15744
 Cu45 Cu 0.12546 0.16044 0.08986
 Cu46 Cu 0.15984 0.09094 0.12435
 N47 N 0.11340 0.08719 0.17601
 N48 N 0.13905 0.07340 0.16301
 C49 C 0.14729 0.04674 0.18051
 C50 C 0.12560 0.04349 0.20594
 C51 C 0.10440 0.06968 0.20223
 H52 H 0.16745 0.03078 0.17489
 H53 H 0.08409 0.07572 0.21759
 N54 N 0.17735 0.11232 0.08523
 N55 N 0.16430 0.13880 0.07214
 C56 C 0.18175 0.14751 0.04593
 C57 C 0.20705 0.12545 0.04225
 C58 C 0.20341 0.10347 0.06767
 H59 H 0.17625 0.16827 0.03052
 H60 H 0.21879 0.08272 0.07320
 H61 H 0.11858 0.11262 0.10550
 H62 H 0.14550 0.13917 0.13072
 N63 N 0.41272 0.82307 0.61011
 N64 N 0.42579 0.83688 0.63571
 C65 C 0.45209 0.81948 0.64466
 C66 C 0.45580 0.79334 0.62348
 C67 C 0.43027 0.79650 0.60186
 H68 H 0.46750 0.82556 0.66493
 H69 H 0.42461 0.78054 0.58175
 Cu70 Cu 0.40717 0.87624 0.65489
 Cu71 Cu 0.37392 0.84046 0.58941
 Cu72 Cu 0.33924 0.90961 0.62393
 N73 N 0.38688 0.91457 0.67442
 N74 N 0.36033 0.92744 0.66224
 C75 C 0.35147 0.95344 0.68028
 C76 C 0.37367 0.95720 0.70521
 C77 C 0.39581 0.93199 0.70065
 H78 H 0.33053 0.96860 0.67537
 H79 H 0.41672 0.92653 0.71547
 N80 N 0.32148 0.88802 0.58510
 N81 N 0.33465 0.86166 0.57200
 C82 C 0.31706 0.85282 0.54595
 C83 C 0.29154 0.87465 0.54238
 C84 C 0.29519 0.89664 0.56771
 H85 H 0.32264 0.83216 0.53053
 H86 H 0.27972 0.91729 0.57325
 H87 H 0.38013 0.88869 0.60374
 H88 H 0.35516 0.86189 0.63074
 N89 N 0.91333 0.67660 0.39021
 N90 N 0.92635 0.66289 0.36455
 C91 C 0.95257 0.68037 0.35558
 C92 C 0.95627 0.70648 0.37681
 C93 C 0.93083 0.70320 0.39848
 H94 H 0.96794 0.67438 0.33527
 H95 H 0.92519 0.71910 0.41865
 Cu96 Cu 0.90778 0.62352 0.34533
 Cu97 Cu 0.87466 0.65907 0.41096
 Cu98 Cu 0.84016 0.58980 0.37647
 N99 N 0.88758 0.58515 0.32579
 N100 N 0.86122 0.57208 0.33810
 C101 C 0.85244 0.54601 0.32011
 C102 C 0.87448 0.54246 0.29502
 C103 C 0.89644 0.56784 0.29946
 H104 H 0.83140 0.53097 0.32486
 H105 H 0.91746 0.57320 0.28480
 N106 N 0.82243 0.61132 0.41533
 N107 N 0.83552 0.63772 0.42842
 C108 C 0.81796 0.64650 0.45449
 C109 C 0.79253 0.62457 0.45809
 C110 C 0.79621 0.60260 0.43275
 H111 H 0.82350 0.66717 0.46990
 H112 H 0.78080 0.58191 0.42722
 H113 H 0.88103 0.61089 0.39655
 H114 H 0.85582 0.63760 0.36967
 N115 N 0.58780 0.32253 -0.11116
 N116 N 0.57561 0.33549 -0.13767
 C117 C 0.54931 0.31813 -0.14657
 C118 C 0.54471 0.29286 -0.12445
 C119 C 0.56970 0.29653 -0.10230
 H120 H 0.53446 0.32367 -0.16744
 H121 H 0.57460 0.28130 -0.08139
 Cu122 Cu 0.59521 0.37386 -0.15794
 Cu123 Cu 0.62621 0.34027 -0.09011
 Cu124 Cu 0.66086 0.40949 -0.12477
 N125 N 0.61448 0.41325 -0.17654
 N126 N 0.64014 0.42700 -0.16351
 C127 C 0.64844 0.45362 -0.18104
 C128 C 0.62678 0.45686 -0.20653
 C129 C 0.60553 0.43073 -0.20281
 H130 H 0.66861 0.46954 -0.17541
 H131 H 0.58521 0.42470 -0.21819
 N132 N 0.67828 0.38816 -0.08556
 N133 N 0.66513 0.36178 -0.07240
 C134 C 0.68254 0.35307 -0.04615
 C135 C 0.70794 0.37503 -0.04251
 C136 C 0.70439 0.39694 -0.06800
 H137 H 0.67697 0.33239 -0.03069
 H138 H 0.71985 0.41760 -0.07358
 H139 H 0.61950 0.38804 -0.10597
 H140 H 0.64639 0.36129 -0.13100
 C141 C -0.03069 0.28181 0.12446
 C142 C -0.00404 0.28499 0.10377
 C143 C 0.02024 0.26101 0.10362
 C144 C -0.07651 0.32727 0.12480
 C145 C -0.00874 0.23053 0.14493
 C146 C -0.03299 0.25454 0.14501
 C147 C -0.05562 0.30654 0.12463
 C148 C 0.01822 0.23346 0.12422
 H149 H -0.00199 0.30604 0.08779
 H150 H 0.04064 0.26433 0.08753
 H151 H -0.01137 0.20965 0.16095
 H152 H -0.05355 0.25181 0.16110
 C153 C 0.53004 0.71905 0.62455
 C154 C 0.50944 0.72210 0.59780
 C155 C 0.48529 0.74621 0.59743
 C156 C 0.57574 0.67346 0.62512
 C157 C 0.50231 0.76435 0.65065
 C158 C 0.52642 0.74020 0.65096
 C159 C 0.55490 0.69424 0.62487
 C160 C 0.48141 0.76768 0.62387
 H161 H 0.51207 0.70588 0.57718
 H162 H 0.46993 0.74810 0.57628
 H163 H 0.49999 0.78015 0.67155
 H164 H 0.54222 0.73801 0.67183
 C165 C 1.03031 0.78093 0.37579
 C166 C 1.00981 0.77775 0.40258
 C167 C 0.98573 0.75359 0.40293
 C168 C 1.07590 0.82660 0.37528
 C169 C 1.00260 0.73566 0.34961
 C170 C 1.02665 0.75986 0.34932
 C171 C 1.05511 0.80579 0.37549
 C172 C 0.98181 0.73220 0.37644
 H173 H 1.01248 0.79391 0.42324
 H174 H 0.97045 0.75160 0.42411
 H175 H 1.00026 0.71991 0.32867
 H176 H 1.04237 0.76214 0.32842
 C177 C 0.46979 0.21931 -0.12467
 C178 C 0.47436 0.23945 -0.15179
 C179 C 0.49866 0.26338 -0.15174
 C180 C 0.42390 0.17397 -0.12494
 C181 C 0.51397 0.24709 -0.09736
 C182 C 0.48963 0.22319 -0.09747
 C183 C 0.44481 0.19465 -0.12480
 C184 C 0.51882 0.26750 -0.12451
 H185 H 0.45916 0.23661 -0.17301
 H186 H 0.50173 0.27836 -0.17318
 H187 H 0.52875 0.24962 -0.07586
 H188 H 0.48627 0.20776 -0.07632
 C189 C 0.12452 -0.03104 0.28005
 C190 C 0.15132 -0.02792 0.25955
 C191 C 0.15169 -0.00374 0.23544
 C192 C 0.12400 -0.07670 0.32573
 C193 C 0.09836 0.01434 0.25228
 C194 C 0.09806 -0.00988 0.27636
 C195 C 0.12421 -0.05590 0.30490
 C196 C 0.12521 0.01774 0.23150
 H197 H 0.17197 -0.04415 0.26224
 H198 H 0.17288 -0.00181 0.22017
 H199 H 0.07743 0.03015 0.24991
 H200 H 0.07715 -0.01211 0.29207
 C201 C 0.62582 0.53127 -0.28075
 C202 C 0.59933 0.51016 -0.27708
 C203 C 0.59960 0.48598 -0.25297
 C204 C 0.62531 0.57689 -0.32648
 C205 C 0.65293 0.50400 -0.23606
 C206 C 0.65260 0.52815 -0.26020
 C207 C 0.62554 0.55610 -0.30563
 C208 C 0.62643 0.48257 -0.23213
 H209 H 0.57844 0.51240 -0.29284
 H210 H 0.57865 0.47020 -0.25061
 H211 H 0.67411 0.50206 -0.22073
 H212 H 0.67327 0.54434 -0.26288
 C213 C 0.37393 1.03086 0.77986
 C214 C 0.40107 1.01081 0.77532
 C215 C 0.40101 0.98684 0.75110
 C216 C 0.37422 1.07630 0.82558
 C217 C 0.34656 1.00293 0.73584
 C218 C 0.34668 1.02687 0.76010
 C219 C 0.37407 1.05558 0.80475
 C220 C 0.37374 0.98259 0.73102
 H221 H 0.42233 1.01373 0.79046
 H222 H 0.42247 0.97192 0.74804
 H223 H 0.32503 1.00031 0.72112
 H224 H 0.32551 1.04224 0.76344
 C225 C 0.87479 0.46891 0.22024
 C226 C 0.85407 0.46572 0.24685
 C227 C 0.85391 0.48961 0.27115
 C228 C 0.87515 0.42359 0.17441
 C229 C 0.89530 0.52004 0.24226
 C230 C 0.89539 0.49612 0.21799
 C231 C 0.87498 0.44426 0.19529
 C232 C 0.87456 0.51710 0.26918
 H233 H 0.83805 0.44471 0.24886
 H234 H 0.83779 0.48627 0.29152
 H235 H 0.91135 0.54088 0.23968
 H236 H 0.91151 0.49886 0.19746
 C237 C 0.28067 0.12530 -0.03152
 C238 C 0.27679 0.09797 -0.01129
 C239 C 0.25288 0.09798 0.01269
 C240 C 0.32597 0.12524 -0.07680
 C241 C 0.23658 0.15275 -0.00376
 C242 C 0.26053 0.15268 -0.02771
 C243 C 0.30531 0.12527 -0.05617
 C244 C 0.23245 0.12539 0.01677
 H245 H 0.29223 0.07662 -0.01408
 H246 H 0.25035 0.07637 0.02776
 H247 H 0.22159 0.17439 -0.00127
 H248 H 0.26336 0.17400 -0.04321
 C249 C 0.71874 0.62456 0.53169
 C250 C 0.72256 0.59727 0.51150
 C251 C 0.74651 0.59724 0.48756
 C252 C 0.67345 0.62453 0.57698
 C253 C 0.76295 0.65191 0.50395
 C254 C 0.73897 0.65187 0.52786
 C255 C 0.69409 0.62454 0.55633
 C256 C 0.76704 0.62458 0.48348
 H257 H 0.70706 0.57596 0.51430
 H258 H 0.74901 0.57566 0.47253
 H259 H 0.77803 0.67350 0.50145
 H260 H 0.73618 0.67316 0.54333
 C261 C 0.78159 0.37500 0.03132
 C262 C 0.76133 0.34772 0.02756
 C263 C 0.73738 0.34770 0.00359
 C264 C 0.82691 0.37493 0.07663
 C265 C 0.75389 0.40235 -0.01298
 C266 C 0.77781 0.40230 0.01102
 C267 C 0.80625 0.37497 0.05598
 C268 C 0.73335 0.37503 -0.01701
 H269 H 0.76409 0.32641 0.04311
 H270 H 0.72229 0.32612 0.00114
 H271 H 0.75144 0.42393 -0.02810
 H272 H 0.79334 0.42359 0.01377
 C273 C 0.21761 0.87443 0.46883
 C274 C 0.23793 0.84718 0.47266
 C275 C 0.26196 0.84721 0.49655
 C276 C 0.17226 0.87435 0.42354
 C277 C 0.24537 0.90185 0.51292
 C278 C 0.22138 0.90175 0.48900
 C279 C 0.19293 0.87438 0.44419
 C280 C 0.26600 0.87457 0.51701
 H281 H 0.23518 0.82587 0.45721
 H282 H 0.27710 0.82566 0.49906
 H283 H 0.24783 0.92345 0.52794
 H284 H 0.20581 0.92301 0.48619
   
