data_POSCAR
  _audit_creation_date              2014-09-24
  _audit_creation_method            'ToBaCCo'
  _symmetry_space_group_name_H-M    'P1'
  _symmetry_Int_Tables_number       1
  _symmetry_cell_setting            triclinic
  loop_
  _symmetry_equiv_pos_as_xyz
 x,y,z
_cell_length_a 42.8311
_cell_length_b 29.9985
_cell_length_c 19.8194
_cell_angle_alpha 91.565400
_cell_angle_beta 89.193700
_cell_angle_gamma 90.729200
loop_
  _atom_site_label
  _atom_site_type_symbol
  _atom_site_fract_x
  _atom_site_fract_y
  _atom_site_fract_z
C1 C 0.67267 0.27407 0.55732
 C2 C 0.66223 0.28752 0.49396
 C3 C 0.67789 0.27607 0.43381
 C4 C 0.70465 0.24920 0.43573
 C5 C 0.71578 0.23456 0.49843
 C6 C 0.69975 0.24680 0.55934
 C7 C 0.71116 0.23077 0.62030
 C8 C 0.73860 0.20669 0.62227
 C9 C 0.75549 0.19516 0.56301
 C10 C 0.74338 0.20831 0.50014
 C11 C 0.72058 0.23670 0.37612
 C12 C 0.74729 0.21131 0.37765
 C13 C 0.75910 0.19616 0.43888
 C14 C 0.78703 0.17129 0.44041
 C15 C 0.79986 0.16180 0.50319
 C16 C 0.78466 0.17273 0.56479
 H17 H 0.69924 0.23626 0.66803
 H18 H 0.74620 0.19789 0.67172
 H19 H 0.71269 0.24657 0.32718
 H20 H 0.75895 0.20526 0.32970
 H21 H 0.64330 0.31077 0.49063
 H22 H 0.82040 0.14122 0.50401
 C23 C 0.17269 0.76839 0.53838
 C24 C 0.16049 0.77723 0.47522
 C25 C 0.17844 0.77380 0.41583
 C26 C 0.20883 0.75604 0.41825
 C27 C 0.22085 0.74310 0.48117
 C28 C 0.20281 0.74965 0.54148
 C29 C 0.21582 0.73871 0.60329
 C30 C 0.24536 0.72041 0.60613
 C31 C 0.26350 0.71244 0.54724
 C32 C 0.25147 0.72530 0.48419
 C33 C 0.22787 0.75216 0.36008
 C34 C 0.25800 0.73545 0.36319
 C35 C 0.27024 0.72153 0.42446
 C36 C 0.30098 0.70500 0.42808
 C37 C 0.31171 0.69062 0.49008
 C38 C 0.29391 0.69420 0.54999
 H39 H 0.20348 0.74433 0.65061
 H40 H 0.25391 0.71403 0.65586
 H41 H 0.21984 0.76248 0.31151
 H42 H 0.27166 0.73394 0.31691
 H43 H 0.13660 0.78846 0.47233
 H44 H 0.33385 0.67366 0.49024
 C45 C 0.21032 0.18617 -0.43937
 C46 C 0.19597 0.17684 -0.50114
 C47 C 0.20795 0.19341 -0.56218
 C48 C 0.23452 0.22259 -0.55962
 C49 C 0.24895 0.23293 -0.49669
 C50 C 0.23733 0.21346 -0.43688
 C51 C 0.25254 0.22264 -0.37560
 C52 C 0.27850 0.25074 -0.37273
 C53 C 0.28971 0.27218 -0.43052
 C54 C 0.27479 0.26336 -0.49322
 C55 C 0.24630 0.24346 -0.61753
 C56 C 0.27126 0.27340 -0.61408
 C57 C 0.28550 0.28497 -0.55226
 C58 C 0.31072 0.31633 -0.54814
 C59 C 0.32542 0.32349 -0.48561
 C60 C 0.31562 0.30179 -0.42729
 H61 H 0.24455 0.20822 -0.32890
 H62 H 0.28947 0.25562 -0.32425
 H63 H 0.23608 0.23806 -0.66658
 H64 H 0.27926 0.28663 -0.66143
 H65 H 0.17630 0.15380 -0.50121
 H66 H 0.34343 0.34889 -0.48021
 C67 C -0.29298 0.71485 -0.41706
 C68 C -0.31072 0.70880 -0.47586
 C69 C -0.29783 0.71274 -0.54118
 C70 C -0.26570 0.72515 -0.54778
 C71 C -0.24689 0.72989 -0.48951
 C72 C -0.26058 0.72533 -0.42409
 C73 C -0.24166 0.73352 -0.36742
 C74 C -0.20997 0.74266 -0.37429
 C75 C -0.19557 0.74477 -0.43815
 C76 C -0.21426 0.73989 -0.49662
 C77 C -0.25195 0.73432 -0.61102
 C78 C -0.22038 0.74453 -0.61790
 C79 C -0.20064 0.74678 -0.56182
 C80 C -0.16802 0.75697 -0.56808
 C81 C -0.14990 0.75432 -0.50987
 C82 C -0.16310 0.75265 -0.44519
 H83 H -0.25094 0.73392 -0.31651
 H84 H -0.19712 0.74837 -0.32833
 H85 H -0.26538 0.73506 -0.65662
 H86 H -0.21213 0.75023 -0.66854
 H87 H -0.33418 0.69600 -0.47032
 H88 H -0.12472 0.75448 -0.51385
 O89 O -0.03646 0.99264 0.12805
 O90 O 0.02554 0.99805 -0.14843
 O91 O -0.03854 0.94539 -0.07148
 O92 O 0.04693 0.95354 0.05497
 O93 O -0.03053 0.99418 -0.14617
 O94 O 0.02086 0.99153 0.13315
 O95 O 0.04154 0.95178 -0.07443
 O96 O -0.04304 0.94446 0.04886
 C97 C -0.04223 0.95339 0.10999
 C98 C 0.03692 0.96095 -0.13445
 C99 C -0.03580 0.95455 -0.13170
 C100 C 0.03872 0.95999 0.11531
 O101 O 0.02395 1.07615 0.10241
 O102 O -0.03242 1.07573 -0.08206
 O103 O -0.06965 1.02698 0.05051
 O104 O 0.06116 1.03644 -0.07338
 O105 O 0.02375 1.08105 -0.09178
 O106 O -0.03431 1.07518 0.08120
 O107 O 0.06172 1.03858 0.05248
 O108 O -0.06767 1.02568 -0.07219
 Co109 Co -0.00651 1.03199 0.09971
 Co110 Co -0.00358 1.03516 -0.10803
 Co111 Co -0.05045 0.98806 -0.01080
 Co112 Co 0.04733 0.99646 -0.01050
 O113 O -0.00296 1.01249 -0.00712
 C114 C 0.05231 1.07059 0.09015
 C115 C -0.06021 1.06478 -0.08671
 C116 C -0.06228 1.06507 0.07421
 C117 C 0.05209 1.07389 -0.09091
 O118 O 0.46625 0.45912 0.07682
 O119 O 0.53659 0.51308 -0.13105
 O120 O 0.45548 0.46742 -0.04670
 O121 O 0.56232 0.47598 0.07111
 O122 O 0.48152 0.49243 -0.13112
 O123 O 0.51770 0.44780 0.09637
 O124 O 0.56054 0.47518 -0.05583
 O125 O 0.43035 0.50238 0.05902
 C126 C 0.43862 0.46817 0.08658
 C127 C 0.55290 0.48037 -0.11566
 C128 C 0.46441 0.46277 -0.10637
 C129 C 0.54638 0.44551 0.09629
 O130 O 0.52648 0.53204 0.14709
 O131 O 0.46753 0.57600 -0.08322
 O132 O 0.45608 0.57692 0.03577
 O133 O 0.56500 0.56296 -0.05138
 O134 O 0.52183 0.59376 -0.07587
 O135 O 0.47049 0.54668 0.12855
 O136 O 0.56010 0.56174 0.07552
 O137 O 0.42552 0.53915 -0.05810
 Co138 Co 0.49570 0.49845 0.10411
 Co139 Co 0.50200 0.54164 -0.09611
 Co140 Co 0.45773 0.52242 -0.00674
 Co141 Co 0.55652 0.51898 0.00900
 O142 O 0.50505 0.51902 0.00572
 C143 C 0.54885 0.55871 0.13418
 C144 C 0.43948 0.56680 -0.09775
 C145 C 0.45807 0.57869 0.09861
 C146 C 0.55071 0.59547 -0.07364
 C147 C 0.32025 0.34194 0.39607
 C148 C 0.35016 0.36048 0.38901
 C149 C 0.35991 0.38544 0.32955
 N150 N 0.39069 0.38829 0.31373
 N151 N 0.40031 0.40987 0.25948
 C152 C 0.37960 0.42982 0.21914
 N153 N 0.34875 0.42784 0.23562
 N154 N 0.33904 0.40574 0.28975
 C155 C 0.39098 0.45322 0.15916
 C156 C 0.41920 0.44025 0.12989
 H157 H 0.36835 0.35235 0.42378
 H158 H 0.37854 0.48165 0.14112
 H159 H 0.30449 0.34660 0.35489
 H160 H 0.43005 0.41019 0.14698
 C161 C -0.15349 0.77156 0.37094
 C162 C -0.12474 0.79480 0.36976
 C163 C -0.11064 0.81543 0.30987
 N164 N -0.08469 0.84124 0.31809
 N165 N -0.07197 0.86258 0.26640
 C166 C -0.08462 0.85889 0.20412
 N167 N -0.11037 0.83246 0.19540
 N168 N -0.12322 0.81112 0.24739
 C169 C -0.07173 0.88523 0.14816
 C170 C -0.05108 0.92077 0.16090
 H171 H -0.11272 0.80305 0.41604
 H172 H -0.08068 0.87941 0.09780
 H173 H -0.16537 0.76885 0.32350
 H174 H -0.04400 0.92832 0.21225
 C175 C 0.68411 0.70021 0.40159
 C176 C 0.65156 0.69435 0.40153
 C177 C 0.63518 0.67437 0.34309
 N178 N 0.60497 0.66083 0.34975
 N179 N 0.59026 0.64073 0.29827
 C180 C 0.60521 0.63371 0.23811
 N181 N 0.63526 0.64783 0.23115
 N182 N 0.65002 0.66765 0.28273
 C183 C 0.58987 0.61008 0.18152
 C184 C 0.56196 0.58628 0.18953
 H185 H 0.63726 0.70362 0.44486
 H186 H 0.60199 0.60902 0.13315
 H187 H 0.69594 0.69230 0.35448
 H188 H 0.55044 0.58565 0.23851
 C189 C 0.19411 1.17932 0.37607
 C190 C 0.16273 1.16633 0.37092
 C191 C 0.14876 1.14928 0.30774
 N192 N 0.11749 1.15209 0.30003
 N193 N 0.10386 1.13481 0.24521
 C194 C 0.12089 1.11359 0.19604
 N195 N 0.15226 1.11052 0.20379
 N196 N 0.16600 1.12832 0.25849
 C197 C 0.10501 1.09124 0.13843
 C198 C 0.07410 1.10136 0.12487
 H199 H 0.14691 1.17189 0.41329
 H200 H 0.11641 1.06388 0.11163
 H201 H 0.20763 1.17957 0.32967
 H202 H 0.06374 1.12989 0.15094
 C203 C 0.65803 0.29130 -0.38301
 C204 C 0.62831 0.31026 -0.38060
 C205 C 0.61664 0.33571 -0.32130
 N206 N 0.59031 0.35988 -0.32649
 N207 N 0.58022 0.38531 -0.27483
 C208 C 0.59603 0.38739 -0.21589
 N209 N 0.62211 0.36265 -0.21022
 N210 N 0.63233 0.33740 -0.26213
 C211 C 0.58556 0.41671 -0.15965
 C212 C 0.56402 0.45015 -0.16985
 H213 H 0.61302 0.30778 -0.42347
 H214 H 0.59578 0.41311 -0.11044
 H215 H 0.67053 0.29194 -0.33617
 H216 H 0.55508 0.45490 -0.21998
 C217 C 0.15389 0.78174 -0.40052
 C218 C 0.13688 0.82124 -0.39954
 C219 C 0.11769 0.83777 -0.34240
 N220 N 0.09946 0.87369 -0.35129
 N221 N 0.08269 0.89101 -0.30031
 C222 C 0.08350 0.87319 -0.23818
 N223 N 0.10167 0.83705 -0.22915
 N224 N 0.11841 0.81950 -0.28044
 C225 C 0.06671 0.89464 -0.18073
 C226 C 0.04784 0.93151 -0.19009
 H227 H 0.13783 0.84209 -0.44330
 H228 H 0.07108 0.88348 -0.13025
 H229 H 0.15373 0.76150 -0.35619
 H230 H 0.04326 0.94198 -0.24085
 C231 C 0.30621 0.67766 -0.38987
 C232 C 0.33825 0.67490 -0.37859
 C233 C 0.35124 0.65327 -0.32004
 N234 N 0.38235 0.65649 -0.30929
 N235 N 0.39509 0.63575 -0.25828
 C236 C 0.37724 0.61079 -0.21619
 N237 N 0.34605 0.60750 -0.22686
 N238 N 0.33325 0.62843 -0.27793
 C239 C 0.39163 0.58677 -0.16121
 C240 C 0.42327 0.59224 -0.14805
 H241 H 0.35485 0.69044 -0.41258
 H242 H 0.37743 0.56412 -0.13175
 H243 H 0.29068 0.66708 -0.34982
 H244 H 0.43722 0.61559 -0.17677
 C245 C -0.20181 1.15930 -0.37408
 C246 C -0.16957 1.15458 -0.36616
 C247 C -0.15563 1.13799 -0.30424
 N248 N -0.12511 1.14687 -0.29160
 N249 N -0.11140 1.13006 -0.23819
 C250 C -0.12760 1.10335 -0.19552
 N251 N -0.15817 1.09438 -0.20816
 N252 N -0.17200 1.11161 -0.26131
 C253 C -0.11155 1.08101 -0.14060
 C254 C -0.08173 1.09452 -0.12054
 H255 H -0.15356 1.16594 -0.40499
 H256 H -0.12205 1.05109 -0.12033
 H257 H -0.21621 1.15380 -0.32993
 H258 H -0.07213 1.12567 -0.13856
 C259 C 0.69283 0.70621 -0.35339
 C260 C 0.66062 0.70900 -0.34029
 C261 C 0.64571 0.69215 -0.27834
 N262 N 0.61459 0.69760 -0.26781
 N263 N 0.60013 0.67949 -0.21505
 C264 C 0.61626 0.65521 -0.17072
 N265 N 0.64746 0.65019 -0.18082
 N266 N 0.66194 0.66837 -0.23353
 C267 C 0.60010 0.63050 -0.11697
 C268 C 0.56777 0.63182 -0.10717
 H269 H 0.64547 0.72388 -0.37644
 H270 H 0.61357 0.60665 -0.08984
 H271 H 0.70708 0.69631 -0.31202
 H272 H 0.55428 0.65633 -0.13286
 C273 C 0.19650 1.16655 -0.37808
 C274 C 0.16565 1.17499 -0.35956
 C275 C 0.15082 1.15610 -0.29937
 N276 N 0.12177 1.16920 -0.28034
 N277 N 0.10728 1.15093 -0.22786
 C278 C 0.12132 1.11885 -0.19241
 N279 N 0.15051 1.10597 -0.21113
 N280 N 0.16507 1.12439 -0.26351
 C281 C 0.10415 1.09503 -0.13940
 C282 C 0.07361 1.10616 -0.12154
 H283 H 0.15194 1.19660 -0.39019
 H284 H 0.11427 1.06503 -0.12032
 H285 H 0.21109 1.14725 -0.34593
 H286 H 0.06377 1.13664 -0.13961
 C287 C 0.33158 0.31350 -0.36282
 C288 C 0.36394 0.31933 -0.36007
 C289 C 0.38002 0.33789 -0.30021
 N290 N 0.41102 0.34748 -0.30424
 N291 N 0.42568 0.36727 -0.25249
 C292 C 0.40992 0.37808 -0.19449
 N293 N 0.37901 0.36778 -0.18999
 N294 N 0.36431 0.34809 -0.24189
 C295 C 0.42514 0.40411 -0.13966
 C296 C 0.45405 0.42502 -0.14951
 H297 H 0.37797 0.31219 -0.40489
 H298 H 0.41159 0.41192 -0.09438
 H299 H 0.31762 0.31934 -0.31757
 H300 H 0.46680 0.41910 -0.19642
 C301 C -0.14241 0.76284 -0.38675
 C302 C -0.11906 0.79555 -0.39180
 C303 C -0.10109 0.81355 -0.33469
 N304 N -0.07950 0.84593 -0.34622
 N305 N -0.06484 0.86633 -0.29521
 C306 C -0.07120 0.85515 -0.23056
 N307 N -0.09238 0.82205 -0.21891
 N308 N -0.10712 0.80156 -0.27014
 C309 C -0.05779 0.88139 -0.17407
 C310 C -0.04202 0.92146 -0.18561
 H311 H -0.11523 0.81190 -0.43931
 H312 H -0.06350 0.87196 -0.12294
 H313 H -0.14655 0.74736 -0.33878
 H314 H -0.03725 0.93148 -0.23687
 C315 C 0.32227 0.69951 0.36816
 C316 C 0.35454 0.70592 0.37468
 C317 C 0.37792 0.68668 0.32755
 N318 N 0.37071 0.67316 0.26362
 N319 N 0.39207 0.65317 0.22395
 C320 C 0.42127 0.64564 0.24697
 N321 N 0.42839 0.65926 0.31073
 N322 N 0.40721 0.67970 0.35001
 C323 C 0.44397 0.61928 0.20672
 C324 C 0.44229 0.61485 0.13680
 H325 H 0.36333 0.72059 0.42135
 H326 H 0.46147 0.60107 0.23325
 H327 H 0.31304 0.68616 0.32113
 H328 H 0.42644 0.63568 0.10992
 C329 C -0.19896 1.15390 0.38050
 C330 C -0.16708 1.14598 0.37279
 C331 C -0.15393 1.12937 0.30822
 N332 N -0.12382 1.13895 0.29183
 N333 N -0.11154 1.12405 0.23357
 C334 C -0.12883 1.09884 0.18963
 N335 N -0.15889 1.08887 0.20629
 N336 N -0.17131 1.10423 0.26430
 C337 C -0.11421 1.07894 0.12857
 C338 C -0.08541 1.09479 0.10575
 H339 H -0.15095 1.15656 0.41181
 H340 H -0.12385 1.04802 0.10786
 H341 H -0.21311 1.14794 0.33637
 H342 H -0.07691 1.12679 0.12503
 C343 C 0.66773 0.29683 0.37061
 C344 C 0.63634 0.29956 0.35374
 C345 C 0.62564 0.32540 0.29652
 N346 N 0.59496 0.32462 0.28048
 N347 N 0.58446 0.34984 0.23160
 C348 C 0.60422 0.37694 0.19692
 N349 N 0.63497 0.37753 0.21266
 N350 N 0.64551 0.35216 0.26145
 C351 C 0.59231 0.40777 0.14685
 C352 C 0.56076 0.40830 0.13067
 H353 H 0.61888 0.28306 0.38467
 H354 H 0.60809 0.43279 0.12679
 H355 H 0.68531 0.31128 0.33773
 H356 H 0.54519 0.38296 0.15055
 C357 C 0.16481 0.79141 0.35356
 C358 C 0.14815 0.83112 0.35734
 C359 C 0.12895 0.84767 0.30308
 N360 N 0.10948 0.88204 0.31715
 N361 N 0.09135 0.89780 0.26966
 C362 C 0.09200 0.87977 0.20617
 N363 N 0.11158 0.84539 0.19186
 N364 N 0.12964 0.82937 0.23964
 C365 C 0.07336 0.89902 0.15281
 C366 C 0.05141 0.93198 0.16759
 H367 H 0.14761 0.85018 0.40460
 H368 H 0.07850 0.88930 0.10084
 H369 H 0.16691 0.77287 0.30612
 H370 H 0.04550 0.94039 0.21968
   
