data_POSCAR
  _audit_creation_date              2014-09-24
  _audit_creation_method            'ToBaCCo'
  _symmetry_space_group_name_H-M    'P1'
  _symmetry_Int_Tables_number       1
  _symmetry_cell_setting            triclinic
  loop_
  _symmetry_equiv_pos_as_xyz
 x,y,z
_cell_length_a 44.1683
_cell_length_b 51.1768
_cell_length_c 45.3668
_cell_angle_alpha 89.947200
_cell_angle_beta 89.987000
_cell_angle_gamma 90.051600
loop_
  _atom_site_label
  _atom_site_type_symbol
  _atom_site_fract_x
  _atom_site_fract_y
  _atom_site_fract_z
C1 C 1.20860 0.26040 0.29570
 H2 H 1.20700 0.23934 0.29715
 C3 C 1.19095 0.27608 0.31417
 H4 H 1.17560 0.26713 0.32984
 C5 C 1.23068 0.29792 0.27373
 H6 H 1.24648 0.30643 0.25830
 C7 C 1.21351 0.31427 0.29176
 H8 H 1.21591 0.33528 0.28990
 N9 N 1.22763 0.27150 0.27565
 C10 C 1.23937 0.21391 0.20562
 H11 H 1.26382 0.21378 0.20414
 C12 C 1.22225 0.19798 0.18703
 H13 H 1.23350 0.18545 0.17122
 C14 C 1.19479 0.23025 0.22817
 H15 H 1.18415 0.24300 0.24402
 C16 C 1.17680 0.21461 0.20997
 H17 H 1.15237 0.21515 0.21209
 Zn18 Zn 1.25090 0.24937 0.25094
 N19 N 1.22552 0.22925 0.22606
 C20 C 1.27108 0.20066 0.27340
 N21 N 1.27419 0.22707 0.27548
 C22 C 1.29323 0.23802 0.29558
 C23 C 1.31082 0.22221 0.31400
 C24 C 1.28818 0.18416 0.29136
 C25 C 1.26235 0.28513 0.20584
 C26 C 1.27942 0.30120 0.18732
 C27 C 1.32493 0.28450 0.21011
 C28 C 1.30699 0.26871 0.22823
 N29 N 1.27625 0.26968 0.22617
 H30 H 1.25526 0.19229 0.25793
 H31 H 1.29486 0.25906 0.29715
 H32 H 1.32613 0.23117 0.32971
 H33 H 1.28560 0.16316 0.28928
 H34 H 1.23790 0.28523 0.20440
 H35 H 1.26813 0.31381 0.17160
 H36 H 1.34936 0.28398 0.21219
 H37 H 1.31766 0.25588 0.24401
 C38 C 1.19069 0.19817 0.18941
 C39 C 1.19334 0.30327 0.31203
 C40 C 1.31098 0.30104 0.18966
 C41 C 1.30837 0.19500 0.31174
 C42 C 0.70799 -0.23902 0.29477
 H43 H 0.70650 -0.26008 0.29625
 C44 C 0.69030 -0.22340 0.31325
 H45 H 0.67504 -0.23240 0.32897
 C46 C 0.72984 -0.20143 0.27270
 H47 H 0.74557 -0.19289 0.25724
 C48 C 0.71262 -0.18513 0.29076
 H49 H 0.71492 -0.16412 0.28887
 N50 N 0.72692 -0.22786 0.27468
 C51 C 0.73888 -0.28554 0.20492
 H52 H 0.76333 -0.28569 0.20352
 C53 C 0.72180 -0.30146 0.18630
 H54 H 0.73308 -0.31402 0.17055
 C55 C 0.69423 -0.26910 0.22727
 H56 H 0.68356 -0.25630 0.24306
 C57 C 0.67629 -0.28473 0.20904
 H58 H 0.65186 -0.28415 0.21107
 Zn59 Zn 0.75025 -0.24996 0.25009
 N60 N 0.72497 -0.27015 0.22527
 C61 C 0.77057 -0.29852 0.27278
 N62 N 0.77352 -0.27210 0.27474
 C63 C 0.79239 -0.26097 0.29487
 C64 C 0.80999 -0.27663 0.31342
 C65 C 0.78770 -0.31485 0.29090
 C66 C 0.76169 -0.21435 0.20491
 C67 C 0.77880 -0.19839 0.18631
 C68 C 0.82428 -0.21509 0.20916
 C69 C 0.80631 -0.23076 0.22737
 N70 N 0.77558 -0.22974 0.22531
 H71 H 0.75489 -0.30704 0.25728
 H72 H 0.79389 -0.23991 0.29633
 H73 H 0.82520 -0.26766 0.32918
 H74 H 0.78538 -0.33587 0.28903
 H75 H 0.73724 -0.21422 0.20347
 H76 H 0.76754 -0.18583 0.17052
 H77 H 0.84870 -0.21564 0.21124
 H78 H 0.81696 -0.24355 0.24320
 C79 C 0.69024 -0.30120 0.18856
 C80 C 0.69257 -0.19620 0.31108
 C81 C 0.81035 -0.19862 0.18864
 C82 C 0.80769 -0.30382 0.31127
 C83 C 0.70808 0.26161 -0.20656
 H84 H 0.70657 0.24055 -0.20505
 C85 C 0.69049 0.27727 -0.18801
 H86 H 0.67528 0.26829 -0.17223
 C87 C 0.72990 0.29915 -0.22872
 H88 H 0.74558 0.30768 -0.24424
 C89 C 0.71277 0.31549 -0.21061
 H90 H 0.71510 0.33650 -0.21252
 N91 N 0.72696 0.27272 -0.22673
 C92 C 0.73876 0.21491 -0.29657
 H93 H 0.76320 0.21484 -0.29812
 C94 C 0.72163 0.19883 -0.31499
 H95 H 0.73287 0.18624 -0.33075
 C96 C 0.69419 0.23123 -0.27397
 H97 H 0.68356 0.24402 -0.25815
 C98 C 0.67620 0.21543 -0.29200
 H99 H 0.65178 0.21591 -0.28978
 Zn100 Zn 0.75029 0.25059 -0.25141
 N101 N 0.72492 0.23031 -0.27618
 C102 C 0.77067 0.20198 -0.22875
 N103 N 0.77365 0.22840 -0.22678
 C104 C 0.79259 0.23947 -0.20666
 C105 C 0.81017 0.22377 -0.18812
 C106 C 0.78778 0.18560 -0.21065
 C107 C 0.76169 0.28632 -0.29660
 C108 C 0.77874 0.30245 -0.31509
 C109 C 0.82428 0.28583 -0.29219
 C110 C 0.80632 0.27000 -0.27412
 N111 N 0.77559 0.27091 -0.27624
 H112 H 0.75494 0.19349 -0.24423
 H113 H 0.79414 0.26053 -0.20516
 H114 H 0.82541 0.23271 -0.17237
 H115 H 0.78540 0.16460 -0.21254
 H116 H 0.73724 0.28637 -0.29809
 H117 H 0.76731 0.31500 -0.33080
 H118 H 0.84871 0.28527 -0.28994
 H119 H 0.81699 0.25720 -0.25832
 C120 C 0.69008 0.19892 -0.31249
 C121 C 0.69278 0.30447 -0.19020
 C122 C 0.81034 0.30239 -0.31269
 C123 C 0.80782 0.19657 -0.19027
 C124 C 1.20757 -0.23905 -0.20533
 H125 H 1.20608 -0.26011 -0.20382
 C126 C 1.19001 -0.22340 -0.18678
 H127 H 1.17482 -0.23237 -0.17097
 C128 C 1.22935 -0.20150 -0.22755
 H129 H 1.24502 -0.19299 -0.24310
 C130 C 1.21225 -0.18517 -0.20944
 H131 H 1.21456 -0.16416 -0.21136
 N132 N 1.22641 -0.22792 -0.22552
 C133 C 1.23805 -0.28573 -0.29514
 H134 H 1.26250 -0.28592 -0.29660
 C135 C 1.22089 -0.30167 -0.31366
 H136 H 1.23209 -0.31430 -0.32939
 C137 C 1.19351 -0.26917 -0.27270
 H138 H 1.18291 -0.25631 -0.25693
 C139 C 1.17547 -0.28482 -0.29083
 H140 H 1.15105 -0.28420 -0.28872
 Zn141 Zn 1.24961 -0.25008 -0.25012
 N142 N 1.22423 -0.27028 -0.27480
 C143 C 1.26994 -0.29860 -0.22734
 N144 N 1.27289 -0.27217 -0.22548
 C145 C 1.29180 -0.26098 -0.20541
 C146 C 1.30941 -0.27659 -0.18683
 C147 C 1.28709 -0.31487 -0.20919
 C148 C 1.26101 -0.21457 -0.29539
 C149 C 1.27811 -0.19867 -0.31406
 C150 C 1.32361 -0.21543 -0.29128
 C151 C 1.30564 -0.23105 -0.27301
 N152 N 1.27491 -0.22996 -0.27501
 H153 H 1.25423 -0.30715 -0.24279
 H154 H 1.29330 -0.23992 -0.20403
 H155 H 1.32465 -0.26757 -0.17112
 H156 H 1.28477 -0.33589 -0.21098
 H157 H 1.23656 -0.21439 -0.29678
 H158 H 1.26685 -0.18609 -0.32983
 H159 H 1.34804 -0.21603 -0.28925
 H160 H 1.31629 -0.24385 -0.25720
 C161 C 1.18934 -0.30136 -0.31129
 C162 C 1.19230 -0.19621 -0.18900
 C163 C 1.30967 -0.19895 -0.31179
 C164 C 1.30710 -0.30378 -0.18888
 C165 C 0.26127 0.21403 0.70515
 H166 H 0.23681 0.21387 0.70379
 C167 C 0.27830 0.19813 0.68648
 H168 H 0.26697 0.18557 0.67074
 C169 C 0.30597 0.23046 0.72745
 H170 H 0.31668 0.24324 0.74324
 C171 C 0.32387 0.21484 0.70918
 H172 H 0.34830 0.21543 0.71117
 N173 N 0.27523 0.22940 0.72549
 C174 C 0.20791 0.23846 0.79522
 H175 H 0.20643 0.25952 0.79670
 C176 C 0.19030 0.22278 0.81377
 H177 H 0.17511 0.23179 0.82953
 C178 C 0.22967 0.20095 0.77306
 H179 H 0.24534 0.19246 0.75753
 C180 C 0.21254 0.18458 0.79116
 H181 H 0.21489 0.16357 0.78920
 Zn182 Zn 0.24999 0.24955 0.75038
 N183 N 0.22675 0.22736 0.77505
 C184 C 0.19387 0.26865 0.72779
 N185 N 0.22460 0.26974 0.72566
 C186 C 0.23842 0.28519 0.70525
 C187 C 0.22127 0.30113 0.68671
 C188 C 0.17585 0.28430 0.70965
 C189 C 0.29231 0.26058 0.79500
 C190 C 0.30993 0.27624 0.81352
 C191 C 0.28750 0.31445 0.79110
 C192 C 0.27035 0.29811 0.77301
 N193 N 0.27334 0.27169 0.77494
 H194 H 0.18326 0.25581 0.74362
 H195 H 0.26287 0.28538 0.70375
 H196 H 0.23248 0.31374 0.67092
 H197 H 0.15143 0.28369 0.71179
 H198 H 0.29384 0.23952 0.79645
 H199 H 0.32520 0.26728 0.82923
 H200 H 0.28514 0.33546 0.78926
 H201 H 0.25459 0.30662 0.75758
 C202 C 0.19254 0.19557 0.81158
 C203 C 0.30986 0.19838 0.68870
 C204 C 0.30757 0.30343 0.81141
 C205 C 0.18972 0.30083 0.68912
 C206 C 0.76084 0.71419 0.70472
 H207 H 0.73639 0.71407 0.70322
 C208 C 0.77795 0.69815 0.68626
 H209 H 0.76668 0.68555 0.67052
 C210 C 0.80544 0.73061 0.72722
 H211 H 0.81609 0.74343 0.74301
 C212 C 0.82341 0.71486 0.70914
 H213 H 0.84783 0.71539 0.71130
 N214 N 0.77470 0.72962 0.72508
 C215 C 0.70707 0.73865 0.79464
 H216 H 0.70551 0.75970 0.79613
 C217 C 0.68944 0.72291 0.81314
 H218 H 0.67418 0.73188 0.82885
 C219 C 0.72904 0.70120 0.77256
 H220 H 0.74480 0.69275 0.75709
 C221 C 0.71190 0.68478 0.79061
 H222 H 0.71434 0.66378 0.78866
 Zn223 Zn 0.74936 0.74984 0.74988
 N224 N 0.72604 0.72762 0.77453
 C225 C 0.69329 0.76909 0.72720
 N226 N 0.72402 0.77007 0.72506
 C227 C 0.73790 0.78549 0.70467
 C228 C 0.72081 0.80152 0.68616
 C229 C 0.67533 0.78483 0.70908
 C230 C 0.79164 0.76098 0.79462
 C231 C 0.80929 0.77670 0.81307
 C232 C 0.78691 0.81484 0.79049
 C233 C 0.76972 0.79846 0.77247
 N234 N 0.77269 0.77204 0.77450
 H235 H 0.68263 0.75628 0.74302
 H236 H 0.76235 0.78561 0.70317
 H237 H 0.73208 0.81412 0.67039
 H238 H 0.65091 0.78430 0.71124
 H239 H 0.79317 0.73992 0.79615
 H240 H 0.82456 0.76777 0.82880
 H241 H 0.78456 0.83585 0.78855
 H242 H 0.75399 0.80693 0.75700
 C243 C 0.69179 0.69571 0.81098
 C244 C 0.80950 0.69832 0.68868
 C245 C 0.80698 0.80389 0.81084
 C246 C 0.68926 0.80135 0.68857
 C247 C 0.76171 0.21451 0.20420
 H248 H 0.73726 0.21431 0.20273
 C249 C 0.77886 0.19863 0.18561
 H250 H 0.76764 0.18605 0.16982
 C251 C 0.80627 0.23101 0.22670
 H252 H 0.81688 0.24382 0.24253
 C253 C 0.82428 0.21542 0.20852
 H254 H 0.84871 0.21604 0.21063
 N255 N 0.77554 0.22990 0.22460
 C256 C 0.70797 0.23896 0.29404
 H257 H 0.70653 0.26002 0.29553
 C258 C 0.69030 0.22330 0.31256
 H259 H 0.67508 0.23227 0.32830
 C260 C 0.72973 0.20141 0.27194
 H261 H 0.74542 0.19290 0.25645
 C262 C 0.71251 0.18508 0.29002
 H263 H 0.71477 0.16407 0.28813
 Zn264 Zn 0.75019 0.25001 0.24937
 N265 N 0.72685 0.22783 0.27393
 C266 C 0.69419 0.26907 0.22657
 N267 N 0.72492 0.27021 0.22458
 C268 C 0.73883 0.28569 0.20426
 C269 C 0.72174 0.30163 0.18567
 C270 C 0.67623 0.28472 0.20838
 C271 C 0.79224 0.26090 0.29420
 C272 C 0.80983 0.27649 0.31281
 C273 C 0.78766 0.31479 0.29032
 C274 C 0.77053 0.29852 0.27214
 N275 N 0.77342 0.27209 0.27406
 H276 H 0.68352 0.25620 0.24233
 H277 H 0.76328 0.28590 0.20287
 H278 H 0.73301 0.31428 0.16996
 H279 H 0.65180 0.28408 0.21040
 H280 H 0.79368 0.23983 0.29563
 H281 H 0.82499 0.26747 0.32858
 H282 H 0.78540 0.33581 0.28848
 H283 H 0.75489 0.30708 0.25663
 C284 C 0.69252 0.19611 0.31037
 C285 C 0.81041 0.19894 0.18799
 C286 C 0.80759 0.30369 0.31070
 C287 C 0.69018 0.30130 0.18794
 C288 C 0.26223 0.71498 0.20551
 H289 H 0.23778 0.71490 0.20403
 C290 C 0.27927 0.69890 0.18701
 H291 H 0.26794 0.68633 0.17128
 C292 C 0.30691 0.73129 0.22795
 H293 H 0.31762 0.74407 0.24374
 C294 C 0.32481 0.71549 0.20985
 H295 H 0.34923 0.71597 0.21197
 N296 N 0.27617 0.73038 0.22585
 C297 C 0.20856 0.73948 0.29546
 H298 H 0.20698 0.76054 0.29693
 C299 C 0.19095 0.72374 0.31397
 H300 H 0.17565 0.73265 0.32968
 C301 C 0.23058 0.70203 0.27343
 H302 H 0.24634 0.69357 0.25797
 C303 C 0.21343 0.68562 0.29150
 H304 H 0.21583 0.66462 0.28962
 Zn305 Zn 0.25086 0.75065 0.25065
 N306 N 0.22755 0.72845 0.27537
 C307 C 0.19474 0.76986 0.22795
 N308 N 0.22548 0.77084 0.22579
 C309 C 0.23933 0.78624 0.20535
 C310 C 0.22221 0.80223 0.18682
 C311 C 0.17676 0.78557 0.20981
 C312 C 0.29322 0.76198 0.29531
 C313 C 0.31078 0.77777 0.31377
 C314 C 0.28814 0.81583 0.29116
 C315 C 0.27107 0.79934 0.27316
 N316 N 0.27419 0.77294 0.27520
 H317 H 0.18410 0.75707 0.24381
 H318 H 0.26378 0.78636 0.20383
 H319 H 0.23347 0.81480 0.17101
 H320 H 0.15234 0.78503 0.21198
 H321 H 0.29486 0.74093 0.29686
 H322 H 0.32607 0.76880 0.32949
 H323 H 0.28555 0.83683 0.28911
 H324 H 0.25527 0.80773 0.25769
 C325 C 0.19332 0.69655 0.31182
 C326 C 0.31082 0.69900 0.18939
 C327 C 0.30831 0.80499 0.31156
 C328 C 0.19066 0.80206 0.18925
 N329 N 1.05388 0.02771 0.03179
 N330 N 1.07419 0.04607 0.03711
 N331 N 1.03276 -0.02727 0.05221
 N332 N 1.03813 -0.04561 0.07201
 N333 N 1.05383 -0.02725 0.03177
 N334 N 1.07414 -0.04558 0.03711
 N335 N 1.03281 0.02768 0.05223
 N336 N 1.03818 0.04600 0.07202
 C337 C 1.06383 0.05741 0.06206
 C338 C 1.06378 -0.05698 0.06206
 N339 N 0.94649 -0.02723 0.03163
 N340 N 0.92628 -0.04570 0.03680
 N341 N 0.96759 0.02767 0.05212
 N342 N 0.96236 0.04613 0.07177
 N343 N 0.94656 0.02771 0.03165
 N344 N 0.92643 0.04620 0.03679
 N345 N 0.96753 -0.02725 0.05210
 N346 N 0.96222 -0.04572 0.07176
 Mn347 Mn 1.00016 0.00021 0.05247
 C348 C 0.93665 -0.05716 0.06169
 C349 C 0.93684 0.05761 0.06167
 N350 N 1.05384 -0.02715 -0.03177
 N351 N 1.07404 -0.04558 -0.03693
 N352 N 1.03290 0.02781 -0.05224
 N353 N 1.03834 0.04621 -0.07197
 N354 N 1.05391 0.02778 -0.03175
 N355 N 1.07423 0.04615 -0.03697
 N356 N 1.03283 -0.02713 -0.05226
 N357 N 1.03815 -0.04555 -0.07194
 Mn358 Mn 1.05418 0.00027 0.00001
 C359 C 1.06369 -0.05699 -0.06184
 C360 C 1.06396 0.05758 -0.06190
 N361 N 0.94655 0.02780 -0.03189
 N362 N 0.92621 0.04609 -0.03724
 N363 N 0.96755 -0.02714 -0.05237
 N364 N 0.96210 -0.04544 -0.07217
 N365 N 0.94650 -0.02716 -0.03191
 N366 N 0.92615 -0.04547 -0.03722
 N367 N 0.96761 0.02783 -0.05235
 N368 N 0.96217 0.04614 -0.07218
 Mn369 Mn 0.94621 0.00028 -0.00012
 Mn370 Mn 1.00023 0.00034 -0.05261
 Cl371 Cl 1.00020 0.00028 -0.00007
 C372 C 0.93651 0.05748 -0.06220
 C373 C 0.93643 -0.05683 -0.06218
 N374 N 1.05345 0.52701 0.53254
 N375 N 1.07357 0.54553 0.53774
 N376 N 1.03232 0.47201 0.55285
 N377 N 1.03756 0.45354 0.57252
 N378 N 1.05343 0.47207 0.53244
 N379 N 1.07362 0.45363 0.53766
 N380 N 1.03235 0.52694 0.55295
 N381 N 1.03751 0.54541 0.57261
 C382 C 1.06308 0.55692 0.56259
 C383 C 1.06316 0.44214 0.56251
 N384 N 0.94609 0.47202 0.53224
 N385 N 0.92575 0.45367 0.53747
 N386 N 0.96713 0.52693 0.55285
 N387 N 0.96175 0.54527 0.57261
 N388 N 0.94614 0.52698 0.53234
 N389 N 0.92589 0.54537 0.53758
 N390 N 0.96709 0.47198 0.55275
 N391 N 0.96162 0.45361 0.57249
 Mn392 Mn 0.99973 0.49946 0.55315
 C393 C 0.93599 0.44224 0.56243
 C394 C 0.93618 0.55671 0.56255
 N395 N 1.05366 0.47221 0.46890
 N396 N 1.07398 0.45389 0.46366
 N397 N 1.03273 0.52722 0.44847
 N398 N 1.03826 0.54558 0.42871
 N399 N 1.05370 0.52717 0.46900
 N400 N 1.07408 0.54550 0.46378
 N401 N 1.03269 0.47225 0.44837
 N402 N 1.03817 0.45395 0.42858
 Mn403 Mn 1.05388 0.49962 0.50073
 C404 C 1.06376 0.44255 0.43866
 C405 C 1.06390 0.55693 0.43880
 N406 N 0.94635 0.52713 0.46880
 N407 N 0.92610 0.54551 0.46357
 N408 N 0.96741 0.47225 0.44827
 N409 N 0.96210 0.45388 0.42852
 N410 N 0.94632 0.47220 0.46870
 N411 N 0.92608 0.45380 0.46342
 N412 N 0.96744 0.52719 0.44837
 N413 N 0.96212 0.54562 0.42867
 Mn414 Mn 0.94591 0.49958 0.50052
 Mn415 Mn 1.00006 0.49973 0.44806
 Cl416 Cl 0.99989 0.49960 0.50061
 C417 C 0.93650 0.55699 0.43869
 C418 C 0.93647 0.44244 0.43851
 N419 N 0.55297 0.02750 0.53135
 N420 N 0.57329 0.04586 0.53660
 N421 N 0.53183 -0.02742 0.55195
 N422 N 0.53714 -0.04577 0.57175
 N423 N 0.55289 -0.02747 0.53150
 N424 N 0.57314 -0.04585 0.53683
 N425 N 0.53191 0.02753 0.55180
 N426 N 0.53730 0.04591 0.57152
 C427 C 0.56296 0.05728 0.56151
 C428 C 0.56275 -0.05720 0.56179
 N429 N 0.44558 -0.02743 0.53139
 N430 N 0.42541 -0.04593 0.53656
 N431 N 0.46668 0.02753 0.55171
 N432 N 0.46138 0.04596 0.57138
 N433 N 0.44563 0.02751 0.53125
 N434 N 0.42542 0.04594 0.53644
 N435 N 0.46661 -0.02739 0.55185
 N436 N 0.46136 -0.04587 0.57152
 Mn437 Mn 0.49925 0.00006 0.55213
 C438 C 0.43581 -0.05735 0.56146
 C439 C 0.43581 0.05738 0.56132
 N440 N 0.55291 -0.02754 0.46796
 N441 N 0.57318 -0.04591 0.46279
 N442 N 0.53196 0.02737 0.44733
 N443 N 0.53736 0.04575 0.42757
 N444 N 0.55297 0.02739 0.46782
 N445 N 0.57325 0.04578 0.46258
 N446 N 0.53190 -0.02757 0.44747
 N447 N 0.53730 -0.04597 0.42778
 Mn448 Mn 0.55325 -0.00003 0.49965
 C449 C 0.56289 -0.05735 0.43788
 C450 C 0.56296 0.05717 0.43763
 N451 N 0.44563 0.02743 0.46770
 N452 N 0.42535 0.04577 0.46237
 N453 N 0.46660 -0.02757 0.44738
 N454 N 0.46113 -0.04589 0.42761
 N455 N 0.44555 -0.02753 0.46784
 N456 N 0.42517 -0.04583 0.46255
 N457 N 0.46668 0.02740 0.44724
 N458 N 0.46129 0.04572 0.42741
 Mn459 Mn 0.44528 -0.00000 0.49955
 Mn460 Mn 0.49929 -0.00009 0.44705
 Cl461 Cl 0.49927 -0.00002 0.49959
 C462 C 0.43567 0.05713 0.43739
 C463 C 0.43544 -0.05724 0.43761
 N464 N 0.55385 0.52777 0.03169
 N465 N 0.57407 0.54623 0.03681
 N466 N 0.53293 0.47281 0.05228
 N467 N 0.53824 0.45433 0.07192
 N468 N 0.55391 0.47283 0.03175
 N469 N 0.57409 0.45435 0.03684
 N470 N 0.53287 0.52773 0.05222
 N471 N 0.53822 0.54616 0.07187
 C472 C 0.56375 0.55764 0.06173
 C473 C 0.56376 0.44290 0.06176
 N474 N 0.44659 0.47264 0.03221
 N475 N 0.42638 0.45421 0.03757
 N476 N 0.46765 0.52764 0.05251
 N477 N 0.46234 0.54600 0.07227
 N478 N 0.44651 0.52761 0.03214
 N479 N 0.42624 0.54595 0.03748
 N480 N 0.46771 0.47269 0.05258
 N481 N 0.46248 0.45430 0.07236
 Mn482 Mn 0.50030 0.50022 0.05270
 C483 C 0.43684 0.44284 0.06247
 C484 C 0.43666 0.55736 0.06237
 N485 N 0.55375 0.47280 -0.03179
 N486 N 0.57413 0.45456 -0.03718
 N487 N 0.53258 0.52772 -0.05225
 N488 N 0.53795 0.54604 -0.07210
 N489 N 0.55368 0.52776 -0.03185
 N490 N 0.57399 0.54609 -0.03725
 N491 N 0.53264 0.47276 -0.05219
 N492 N 0.53808 0.45448 -0.07202
 Mn493 Mn 0.55411 0.50029 -0.00005
 C494 C 0.56380 0.44318 -0.06211
 C495 C 0.56362 0.55745 -0.06220
 N496 N 0.44634 0.52757 -0.03140
 N497 N 0.42606 0.54595 -0.03655
 N498 N 0.46735 0.47266 -0.05189
 N499 N 0.46193 0.45426 -0.07158
 N500 N 0.44639 0.47263 -0.03134
 N501 N 0.42612 0.45421 -0.03648
 N502 N 0.46730 0.52760 -0.05195
 N503 N 0.46186 0.54600 -0.07166
 Mn504 Mn 0.44614 0.50011 0.00040
 Mn505 Mn 0.49996 0.50018 -0.05238
 Cl506 Cl 0.50013 0.50020 0.00016
 C507 C 0.43630 0.55738 -0.06150
 C508 C 0.43638 0.44281 -0.06142
 C509 C 1.14082 0.14706 0.13916
 C510 C 1.14779 0.14807 0.10602
 C511 C 1.13182 0.13031 0.08989
 C512 C 1.11047 0.11329 0.10849
 C513 C 1.09040 0.13273 0.12528
 C514 C 1.10637 0.15049 0.14141
 C515 C 1.14670 0.11862 0.14822
 C516 C 1.13077 0.10088 0.13211
 C517 C 1.15817 0.16593 0.15669
 C518 C 1.17280 0.18091 0.17144
 C519 C 1.09345 0.09393 0.09135
 C520 C 1.07977 0.07752 0.07771
 H521 H 1.16381 0.16157 0.09609
 H522 H 1.13417 0.12859 0.06615
 H523 H 1.06584 0.13257 0.12454
 H524 H 1.09548 0.16555 0.15448
 H525 H 1.16206 0.11290 0.16576
 H526 H 1.13248 0.07998 0.13587
 C527 C 1.13948 0.64732 0.63887
 C528 C 1.15354 0.61991 0.63921
 C529 C 1.13766 0.60204 0.62327
 C530 C 1.10925 0.61329 0.60852
 C531 C 1.12062 0.63651 0.59013
 C532 C 1.13654 0.65442 0.60611
 C533 C 1.10685 0.64345 0.64970
 C534 C 1.09095 0.62555 0.63374
 C535 C 1.15678 0.66630 0.65623
 C536 C 1.17141 0.68135 0.67087
 C537 C 1.09233 0.59378 0.59157
 C538 C 1.07878 0.57721 0.57808
 H539 H 1.17419 0.61498 0.65094
 H540 H 1.14470 0.58179 0.62134
 H541 H 1.11652 0.63870 0.56667
 H542 H 1.14607 0.67197 0.59634
 H543 H 1.09709 0.65388 0.66823
 H544 H 1.06756 0.62064 0.63859
 C545 C 0.64012 0.14739 0.63784
 C546 C 0.60585 0.15240 0.63774
 C547 C 0.58984 0.13453 0.62180
 C548 C 0.60968 0.11341 0.60753
 C549 C 0.62768 0.10140 0.63310
 C550 C 0.64367 0.11925 0.64901
 C551 C 0.64917 0.14636 0.60518
 C552 C 0.63317 0.12850 0.58924
 C553 C 0.65752 0.16638 0.65516
 C554 C 0.67217 0.18149 0.66974
 C555 C 0.59261 0.09394 0.59057
 C556 C 0.57891 0.07745 0.57706
 H557 H 0.59511 0.16857 0.64915
 H558 H 0.56539 0.13539 0.61955
 H559 H 0.62786 0.08068 0.63827
 H560 H 0.65752 0.11380 0.66780
 H561 H 0.66659 0.15861 0.59543
 H562 H 0.63687 0.12544 0.56584
 C563 C 0.64050 0.64764 0.13836
 C564 C 0.60630 0.65296 0.13765
 C565 C 0.59038 0.63513 0.12157
 C566 C 0.61024 0.61377 0.10780
 C567 C 0.62763 0.60175 0.13376
 C568 C 0.64352 0.61954 0.14981
 C569 C 0.65013 0.64636 0.10588
 C570 C 0.63421 0.62853 0.08980
 C571 C 0.65779 0.66655 0.15584
 C572 C 0.67239 0.68154 0.17058
 C573 C 0.59327 0.59434 0.09074
 C574 C 0.57963 0.57785 0.07721
 H575 H 0.59555 0.66928 0.14875
 H576 H 0.56598 0.63618 0.11889
 H577 H 0.62747 0.58106 0.13908
 H578 H 0.65698 0.61409 0.16887
 H579 H 0.66786 0.65840 0.09634
 H580 H 0.63829 0.62531 0.06649
 C581 C 0.86007 -0.14735 0.13842
 C582 C 0.89415 -0.14730 0.14507
 C583 C 0.91003 -0.12944 0.12898
 C584 C 0.89027 -0.11340 0.10783
 C585 C 0.86567 -0.10122 0.12735
 C586 C 0.84981 -0.11906 0.14342
 C587 C 0.85775 -0.15156 0.10499
 C588 C 0.87364 -0.13369 0.08889
 C589 C 0.84280 -0.16630 0.15592
 C590 C 0.82822 -0.18132 0.17067
 C591 C 0.90720 -0.09393 0.09075
 C592 C 0.92080 -0.07740 0.07720
 H593 H 0.90486 -0.16018 0.16098
 H594 H 0.93436 -0.12701 0.13110
 H595 H 0.86110 -0.08041 0.12846
 H596 H 0.83165 -0.11351 0.15829
 H597 H 0.84480 -0.16720 0.09487
 H598 H 0.87431 -0.13402 0.06498
 C599 C 0.85866 0.35228 0.63904
 C600 C 0.89265 0.35248 0.64610
 C601 C 0.90867 0.37031 0.63009
 C602 C 0.88913 0.38619 0.60859
 C603 C 0.86422 0.39838 0.62774
 C604 C 0.84822 0.38057 0.64373
 C605 C 0.85679 0.34790 0.60561
 C606 C 0.87282 0.36574 0.58959
 C607 C 0.84125 0.33333 0.65646
 C608 C 0.82657 0.31826 0.67113
 C609 C 0.90623 0.40563 0.59155
 C610 C 0.91997 0.42209 0.57801
 H611 H 0.90321 0.33972 0.66222
 H612 H 0.93296 0.37282 0.63250
 H613 H 0.85955 0.41919 0.62865
 H614 H 0.82985 0.38613 0.65833
 H615 H 0.84404 0.33217 0.59543
 H616 H 0.87379 0.36529 0.56569
 C617 C 0.35937 -0.14769 0.63803
 C618 C 0.36396 -0.15564 0.60571
 C619 C 0.37984 -0.13774 0.58965
 C620 C 0.38955 -0.11368 0.60751
 C621 C 0.40723 -0.12467 0.63388
 C622 C 0.39136 -0.14255 0.64994
 C623 C 0.34428 -0.12072 0.63673
 C624 C 0.36013 -0.10285 0.62069
 C625 C 0.34212 -0.16666 0.65549
 C626 C 0.32753 -0.18168 0.67023
 C627 C 0.40646 -0.09419 0.59047
 C628 C 0.42003 -0.07763 0.57696
 H629 H 0.35551 -0.17373 0.59629
 H630 H 0.38500 -0.14048 0.56646
 H631 H 0.43020 -0.11893 0.63943
 H632 H 0.40073 -0.15215 0.66923
 H633 H 0.32298 -0.11606 0.64745
 H634 H 0.35241 -0.08289 0.61768
 C635 C 0.36057 0.35255 0.13952
 C636 C 0.39220 0.35837 0.15190
 C637 C 0.40802 0.37627 0.13580
 C638 C 0.39065 0.38658 0.10889
 C639 C 0.36075 0.39714 0.12133
 C640 C 0.34495 0.37926 0.13741
 C641 C 0.36596 0.34420 0.10745
 C642 C 0.38179 0.36211 0.09133
 C643 C 0.34336 0.33354 0.15703
 C644 C 0.32882 0.31844 0.17175
 C645 C 0.40751 0.40609 0.09176
 C646 C 0.42106 0.42261 0.07813
 H647 H 0.40139 0.34922 0.17155
 H648 H 0.43076 0.38244 0.14165
 H649 H 0.35267 0.41692 0.11778
 H650 H 0.32335 0.38374 0.14765
 H651 H 0.35807 0.32585 0.09822
 H652 H 0.38746 0.35910 0.06829
 C653 C 0.85831 0.14645 -0.13928
 C654 C 0.86915 0.12281 -0.15719
 C655 C 0.88538 0.10525 -0.14110
 C656 C 0.88922 0.11301 -0.10865
 C657 C 0.85689 0.11719 -0.09717
 C658 C 0.84064 0.13477 -0.11327
 C659 C 0.88715 0.15800 -0.12557
 C660 C 0.90341 0.14041 -0.10946
 C661 C 0.84065 0.16509 -0.15686
 C662 C 0.82584 0.17979 -0.17182
 C663 C 0.90655 0.09381 -0.09153
 C664 C 0.92043 0.07750 -0.07791
 H665 H 0.86451 0.12010 -0.18049
 H666 H 0.89464 0.08752 -0.15063
 H667 H 0.84759 0.10726 -0.07804
 H668 H 0.81743 0.13988 -0.10793
 H669 H 0.89415 0.17820 -0.12826
 H670 H 0.92435 0.14554 -0.09834
 C671 C 0.85833 0.64616 0.36210
 C672 C 0.86901 0.62249 0.34415
 C673 C 0.88529 0.60492 0.36015
 C674 C 0.88932 0.61269 0.39257
 C675 C 0.85707 0.61693 0.40423
 C676 C 0.84078 0.63452 0.38821
 C677 C 0.88727 0.65767 0.37564
 C678 C 0.90358 0.64006 0.39168
 C679 C 0.84063 0.66479 0.34461
 C680 C 0.82576 0.67945 0.32970
 C681 C 0.90667 0.59347 0.40958
 C682 C 0.92052 0.57710 0.42311
 H683 H 0.86423 0.61979 0.32087
 H684 H 0.89444 0.58716 0.35058
 H685 H 0.84786 0.60702 0.42342
 H686 H 0.81761 0.63969 0.39367
 H687 H 0.89431 0.67786 0.37290
 H688 H 0.92460 0.64515 0.40268
 C689 C 0.35741 0.14630 0.36072
 C690 C 0.38430 0.13463 0.34383
 C691 C 0.40060 0.11702 0.35982
 C692 C 0.38842 0.11279 0.39116
 C693 C 0.35511 0.10505 0.38704
 C694 C 0.33882 0.12265 0.37106
 C695 C 0.37118 0.15780 0.38896
 C696 C 0.38750 0.14017 0.40498
 C697 C 0.33969 0.16496 0.34325
 C698 C 0.32479 0.17967 0.32836
 C699 C 0.40578 0.09355 0.40817
 C700 C 0.41965 0.07719 0.42173
 H701 H 0.39008 0.13978 0.32130
 H702 H 0.42032 0.10710 0.35099
 H703 H 0.34516 0.08731 0.39594
 H704 H 0.31494 0.11998 0.36627
 H705 H 0.36838 0.17799 0.39575
 H706 H 0.39868 0.14525 0.42550
 C707 C 0.35785 0.64636 -0.13801
 C708 C 0.36360 0.62052 -0.15419
 C709 C 0.37993 0.60298 -0.13819
 C710 C 0.38893 0.61298 -0.10754
 C711 C 0.35903 0.62095 -0.09284
 C712 C 0.34268 0.63851 -0.10887
 C713 C 0.38939 0.65633 -0.12927
 C714 C 0.40576 0.63876 -0.11323
 C715 C 0.34011 0.66493 -0.15551
 C716 C 0.32520 0.67955 -0.17044
 C717 C 0.40634 0.59380 -0.09053
 C718 C 0.42024 0.57746 -0.07703
 H719 H 0.35557 0.61635 -0.17631
 H720 H 0.38588 0.58381 -0.14660
 H721 H 0.35139 0.61350 -0.07169
 H722 H 0.32104 0.64610 -0.10145
 H723 H 0.39809 0.67550 -0.13513
 H724 H 0.42847 0.64287 -0.10535
 C725 C 1.14173 -0.14621 -0.13823
 C726 C 1.13770 -0.15403 -0.10578
 C727 C 1.12141 -0.13641 -0.08976
 C728 C 1.11078 -0.11273 -0.10781
 C729 C 1.09320 -0.12434 -0.13389
 C730 C 1.10948 -0.14195 -0.14988
 C731 C 1.15598 -0.11886 -0.13737
 C732 C 1.13972 -0.10128 -0.12139
 C733 C 1.15940 -0.16484 -0.15569
 C734 C 1.17425 -0.17950 -0.17060
 C735 C 1.09346 -0.09350 -0.09084
 C736 C 1.07964 -0.07712 -0.07735
 H737 H 1.14680 -0.17183 -0.09624
 H738 H 1.11656 -0.13910 -0.06650
 H739 H 1.07000 -0.11923 -0.13928
 H740 H 1.10022 -0.15192 -0.16898
 H741 H 1.17702 -0.11376 -0.14833
 H742 H 1.14685 -0.08111 -0.11867
 C743 C 1.14241 0.35341 0.36247
 C744 C 1.15245 0.38183 0.35782
 C745 C 1.13609 0.39942 0.37369
 C746 C 1.11124 0.38692 0.39270
 C747 C 1.12773 0.36665 0.41182
 C748 C 1.14412 0.34902 0.39591
 C749 C 1.10846 0.35320 0.35520
 C750 C 1.09207 0.37081 0.37110
 C751 C 1.16021 0.33474 0.34512
 C752 C 1.17517 0.32004 0.33032
 C753 C 1.09379 0.40616 0.40960
 C754 C 1.07985 0.42250 0.42307
 H755 H 1.17084 0.38764 0.34333
 H756 H 1.14047 0.42029 0.37278
 H757 H 1.12659 0.36616 0.43571
 H758 H 1.15703 0.33344 0.40619
 H759 H 1.09819 0.34031 0.33904
 H760 H 1.06777 0.37302 0.36855
 C761 C 0.64157 -0.14630 0.36164
 C762 C 0.61878 -0.13073 0.34310
 C763 C 0.60237 -0.11320 0.35902
 C764 C 0.61035 -0.11292 0.39195
 C765 C 0.64463 -0.10804 0.39303
 C766 C 0.66103 -0.12558 0.37710
 C767 C 0.62269 -0.15887 0.38629
 C768 C 0.60625 -0.14130 0.40225
 C769 C 0.65941 -0.16488 0.34424
 C770 C 0.67438 -0.17951 0.32940
 C771 C 0.59288 -0.09374 0.40887
 C772 C 0.57895 -0.07741 0.42234
 H773 H 0.61575 -0.13330 0.31953
 H774 H 0.58530 -0.10074 0.34910
 H775 H 0.65510 -0.09221 0.40527
 H776 H 0.68555 -0.12477 0.37570
 H777 H 0.62226 -0.17970 0.39081
 H778 H 0.59174 -0.14707 0.42044
 C779 C 0.64217 0.35445 -0.13922
 C780 C 0.64674 0.38290 -0.14897
 C781 C 0.63047 0.40041 -0.13290
 C782 C 0.61118 0.38780 -0.10860
 C783 C 0.63358 0.37174 -0.09012
 C784 C 0.64988 0.35420 -0.10622
 C785 C 0.60783 0.34995 -0.14066
 C786 C 0.59153 0.36749 -0.12455
 C787 C 0.65987 0.33586 -0.15680
 C788 C 0.67473 0.32121 -0.17175
 C789 C 0.59380 0.40695 -0.09148
 C790 C 0.57990 0.42321 -0.07785
 H791 H 0.66148 0.38879 -0.16695
 H792 H 0.63128 0.42129 -0.13712
 H793 H 0.63636 0.37392 -0.06647
 H794 H 0.66662 0.34136 -0.09637
 H795 H 0.59725 0.33435 -0.15318
 H796 H 0.56699 0.36691 -0.12328
 C797 C 1.14263 0.14653 -0.13854
 C798 C 1.14844 0.11799 -0.14721
 C799 C 1.13207 0.10046 -0.13119
 C800 C 1.11146 0.11315 -0.10805
 C801 C 1.09185 0.13260 -0.12536
 C802 C 1.10825 0.15015 -0.14141
 C803 C 1.14902 0.14772 -0.10531
 C804 C 1.13261 0.13016 -0.08926
 C805 C 1.16044 0.16510 -0.15605
 C806 C 1.17539 0.17972 -0.17100
 C807 C 1.09400 0.09398 -0.09102
 C808 C 1.08006 0.07765 -0.07749
 H809 H 1.16405 0.11206 -0.16443
 H810 H 1.13367 0.07953 -0.13470
 H811 H 1.06728 0.13260 -0.12501
 H812 H 1.09773 0.16520 -0.15480
 H813 H 1.16497 0.16119 -0.09526
 H814 H 1.13451 0.12858 -0.06547
 C815 C 1.14253 0.64625 0.36244
 C816 C 1.14255 0.61866 0.34922
 C817 C 1.12622 0.60103 0.36514
 C818 C 1.11143 0.61266 0.39277
 C819 C 1.09259 0.63581 0.38151
 C820 C 1.10895 0.65348 0.36555
 C821 C 1.15395 0.64274 0.39416
 C822 C 1.13760 0.62508 0.41011
 C823 C 1.16030 0.66497 0.34502
 C824 C 1.17520 0.67972 0.33018
 C825 C 1.09399 0.59338 0.40973
 C826 C 1.08004 0.57701 0.42322
 H827 H 1.15437 0.61342 0.32908
 H828 H 1.12406 0.58070 0.35863
 H829 H 1.06855 0.63814 0.38572
 H830 H 1.09892 0.67094 0.35610
 H831 H 1.17315 0.65322 0.40330
 H832 H 1.14279 0.62044 0.43291
 C833 C 0.64159 0.14616 0.36109
 C834 C 0.64160 0.11852 0.34800
 C835 C 0.62522 0.10098 0.36398
 C836 C 0.61039 0.11276 0.39151
 C837 C 0.59159 0.13587 0.38009
 C838 C 0.60801 0.15345 0.36408
 C839 C 0.65294 0.14278 0.39285
 C840 C 0.63653 0.12521 0.40885
 C841 C 0.65940 0.16475 0.34363
 C842 C 0.67436 0.17940 0.32875
 C843 C 0.59293 0.09358 0.40851
 C844 C 0.57901 0.07724 0.42203
 H845 H 0.65345 0.11319 0.32792
 H846 H 0.62304 0.08063 0.35758
 H847 H 0.56754 0.13824 0.38424
 H848 H 0.59803 0.17088 0.35452
 H849 H 0.67213 0.15328 0.40197
 H850 H 0.64166 0.12066 0.43169
 C851 C 0.64200 0.64648 -0.13917
 C852 C 0.64223 0.61878 -0.15210
 C853 C 0.62593 0.60122 -0.13607
 C854 C 0.61094 0.61303 -0.10863
 C855 C 0.59203 0.63600 -0.12022
 C856 C 0.60837 0.65360 -0.13628
 C857 C 0.65329 0.64328 -0.10736
 C858 C 0.63696 0.62568 -0.09131
 C859 C 0.65975 0.66512 -0.15669
 C860 C 0.67466 0.67980 -0.17163
 C861 C 0.59354 0.59381 -0.09155
 C862 C 0.57966 0.57749 -0.07794
 H863 H 0.65417 0.61343 -0.17213
 H864 H 0.62390 0.58083 -0.14238
 H865 H 0.56795 0.63827 -0.11614
 H866 H 0.59829 0.67094 -0.14596
 H867 H 0.67239 0.65391 -0.09825
 H868 H 0.64207 0.62126 -0.06843
 C869 C 0.85784 -0.14593 -0.13863
 C870 C 0.89222 -0.14888 -0.14236
 C871 C 0.90860 -0.13126 -0.12641
 C872 C 0.88898 -0.11243 -0.10830
 C873 C 0.86870 -0.13010 -0.08932
 C874 C 0.85233 -0.14772 -0.10527
 C875 C 0.85115 -0.11738 -0.14665
 C876 C 0.86749 -0.09979 -0.13073
 C877 C 0.84006 -0.16460 -0.15603
 C878 C 0.82513 -0.17931 -0.17085
 C879 C 0.90642 -0.09320 -0.09134
 C880 C 0.92035 -0.07687 -0.07782
 H881 H 0.90278 -0.16353 -0.15626
 H882 H 0.93317 -0.13082 -0.12665
 H883 H 0.86736 -0.12891 -0.06546
 H884 H 0.83696 -0.16162 -0.09508
 H885 H 0.83496 -0.11148 -0.16339
 H886 H 0.86530 -0.07884 -0.13384
 C887 C 0.85827 0.35352 0.36168
 C888 C 0.89266 0.35053 0.35808
 C889 C 0.90898 0.36808 0.37416
 C890 C 0.88929 0.38688 0.39224
 C891 C 0.86890 0.36919 0.41109
 C892 C 0.85258 0.35163 0.39500
 C893 C 0.85165 0.38210 0.35371
 C894 C 0.86793 0.39961 0.36977
 C895 C 0.84055 0.33496 0.34413
 C896 C 0.82567 0.32035 0.32917
 C897 C 0.90665 0.40604 0.40931
 C898 C 0.92050 0.42237 0.42288
 H899 H 0.90325 0.33590 0.34418
 H900 H 0.93355 0.36849 0.37404
 H901 H 0.86745 0.37032 0.43494
 H902 H 0.83714 0.33773 0.40507
 H903 H 0.83555 0.38805 0.33692
 H904 H 0.86579 0.42058 0.36672
 C905 C 0.35719 -0.14633 0.36075
 C906 C 0.33828 -0.12329 0.37211
 C907 C 0.35452 -0.10571 0.38817
 C908 C 0.38810 -0.11284 0.39132
 C909 C 0.39960 -0.11616 0.35962
 C910 C 0.38336 -0.13375 0.34356
 C911 C 0.37194 -0.15814 0.38836
 C912 C 0.38821 -0.14052 0.40445
 C913 C 0.33952 -0.16499 0.34320
 C914 C 0.32468 -0.17968 0.32825
 C915 C 0.40544 -0.09361 0.40840
 C916 C 0.41933 -0.07728 0.42197
 H917 H 0.31422 -0.12101 0.36794
 H918 H 0.34435 -0.08837 0.39775
 H919 H 0.41885 -0.10565 0.35058
 H920 H 0.38870 -0.13830 0.32077
 H921 H 0.36980 -0.17851 0.39471
 H922 H 0.40000 -0.14580 0.42458
 C923 C 0.35819 0.35352 -0.13781
 C924 C 0.39259 0.35054 -0.14135
 C925 C 0.40887 0.36818 -0.12534
 C926 C 0.38915 0.38704 -0.10739
 C927 C 0.36875 0.36942 -0.08848
 C928 C 0.35246 0.35178 -0.10449
 C929 C 0.35156 0.38206 -0.14595
 C930 C 0.36781 0.39966 -0.12997
 C931 C 0.34051 0.33486 -0.15529
 C932 C 0.32565 0.32017 -0.17019
 C933 C 0.40648 0.40630 -0.09041
 C934 C 0.42034 0.42269 -0.07693
 H935 H 0.40322 0.33586 -0.15515
 H936 H 0.43345 0.36860 -0.12544
 H937 H 0.36726 0.37065 -0.06464
 H938 H 0.33703 0.33791 -0.09436
 H939 H 0.33548 0.38793 -0.16280
 H940 H 0.36565 0.42061 -0.13314
 C941 C 1.14079 -0.14670 0.13911
 C942 C 1.14287 -0.15107 0.10569
 C943 C 1.12691 -0.13328 0.08958
 C944 C 1.11044 -0.11288 0.10849
 C945 C 1.13520 -0.10062 0.12777
 C946 C 1.15114 -0.11838 0.14385
 C947 C 1.10676 -0.14661 0.14599
 C948 C 1.09079 -0.12883 0.12989
 C949 C 1.15815 -0.16560 0.15662
 C950 C 1.17277 -0.18062 0.17133
 C951 C 1.09340 -0.09350 0.09136
 C952 C 1.07972 -0.07708 0.07773
 H953 H 1.15572 -0.16676 0.09558
 H954 H 1.12608 -0.13374 0.06567
 H955 H 1.13981 -0.07980 0.12871
 H956 H 1.16940 -0.11275 0.15856
 H957 H 1.09613 -0.15940 0.16205
 H958 H 1.06649 -0.12639 0.13216
 C959 C 1.13984 0.35205 0.63911
 C960 C 1.10909 0.35909 0.65272
 C961 C 1.09316 0.37693 0.63669
 C962 C 1.10955 0.38597 0.60862
 C963 C 1.11660 0.36076 0.59162
 C964 C 1.13254 0.34291 0.60767
 C965 C 1.15632 0.37824 0.63523
 C966 C 1.14040 0.39606 0.61922
 C967 C 1.15716 0.33312 0.65654
 C968 C 1.17180 0.31811 0.67122
 C969 C 1.09258 0.40541 0.59159
 C970 C 1.07897 0.42192 0.57805
 H971 H 1.10056 0.35078 0.67312
 H972 H 1.07099 0.38389 0.64336
 H973 H 1.10967 0.35725 0.56901
 H974 H 1.13928 0.32410 0.59880
 H975 H 1.17856 0.38242 0.64426
 H976 H 1.14902 0.41550 0.61453
 C977 C 0.63948 -0.14724 0.63860
 C978 C 0.60547 -0.14704 0.64556
 C979 C 0.58955 -0.12919 0.62951
 C980 C 0.60921 -0.11329 0.60809
 C981 C 0.62554 -0.13373 0.58912
 C982 C 0.64146 -0.15159 0.60517
 C983 C 0.64997 -0.11896 0.64335
 C984 C 0.63407 -0.10113 0.62733
 C985 C 0.65679 -0.16620 0.65603
 C986 C 0.67139 -0.18127 0.67070
 C987 C 0.59224 -0.09384 0.59103
 C988 C 0.57861 -0.07736 0.57744
 H989 H 0.59482 -0.15981 0.66163
 H990 H 0.56526 -0.12667 0.63185
 H991 H 0.62464 -0.13416 0.56521
 H992 H 0.65421 -0.16731 0.59500
 H993 H 0.66830 -0.11341 0.65802
 H994 H 0.63879 -0.08032 0.62829
 C995 C 0.64042 0.35260 0.13797
 C996 C 0.64384 0.34925 0.10451
 C997 C 0.62791 0.36714 0.08852
 C998 C 0.61016 0.38659 0.10760
 C999 C 0.63382 0.39883 0.12815
 C1000 C 0.64972 0.38097 0.14411
 C1001 C 0.60618 0.35172 0.14368
 C1002 C 0.59025 0.36960 0.12770
 C1003 C 0.65772 0.33363 0.15536
 C1004 C 0.67232 0.31859 0.17003
 C1005 C 0.59320 0.40608 0.09063
 C1006 C 0.57959 0.42262 0.07718
 H1007 H 0.65752 0.33415 0.09428
 H1008 H 0.62794 0.36737 0.06459
 H1009 H 0.63776 0.41971 0.13001
 H1010 H 0.66727 0.38655 0.15963
 H1011 H 0.59539 0.33823 0.15890
 H1012 H 0.56582 0.37144 0.12922
 C1013 C 0.86026 0.14778 0.13802
 C1014 C 0.85608 0.11956 0.14873
 C1015 C 0.87198 0.10174 0.13275
 C1016 C 0.89053 0.11385 0.10761
 C1017 C 0.91054 0.13457 0.12244
 C1018 C 0.89461 0.15242 0.13844
 C1019 C 0.85165 0.14725 0.10524
 C1020 C 0.86757 0.12940 0.08924
 C1021 C 0.84295 0.16671 0.15541
 C1022 C 0.82832 0.18170 0.17008
 C1023 C 0.90748 0.09439 0.09063
 C1024 C 0.92106 0.07787 0.07714
 H1025 H 0.84186 0.11405 0.16725
 H1026 H 0.87138 0.08096 0.13760
 H1027 H 0.93503 0.13518 0.12052
 H1028 H 0.90545 0.16834 0.15023
 H1029 H 0.83458 0.15981 0.09545
 H1030 H 0.86416 0.12666 0.06575
 C1031 C 0.85932 0.64684 0.63894
 C1032 C 0.85894 0.61930 0.65233
 C1033 C 0.87487 0.60145 0.63639
 C1034 C 0.88964 0.61286 0.60859
 C1035 C 0.90894 0.63583 0.61959
 C1036 C 0.89299 0.65371 0.63555
 C1037 C 0.84761 0.64336 0.60732
 C1038 C 0.86355 0.62549 0.59136
 C1039 C 0.84199 0.66583 0.65629
 C1040 C 0.82737 0.68092 0.67089
 C1041 C 0.90664 0.59338 0.59161
 C1042 C 0.92029 0.57689 0.57810
 H1043 H 0.84720 0.61425 0.67258
 H1044 H 0.87676 0.58112 0.64300
 H1045 H 0.93299 0.63789 0.61521
 H1046 H 0.90337 0.67108 0.64485
 H1047 H 0.82851 0.65401 0.59825
 H1048 H 0.85811 0.62083 0.56863
 C1049 C 0.35940 0.14728 0.63829
 C1050 C 0.35997 0.15336 0.60514
 C1051 C 0.37581 0.13556 0.58898
 C1052 C 0.38950 0.11345 0.60758
 C1053 C 0.36266 0.10161 0.62444
 C1054 C 0.34685 0.11938 0.64057
 C1055 C 0.39280 0.14506 0.64729
 C1056 C 0.40863 0.12726 0.63114
 C1057 C 0.34219 0.16617 0.65586
 C1058 C 0.32765 0.18115 0.67066
 C1059 C 0.40639 0.09404 0.59043
 C1060 C 0.41997 0.07757 0.57685
 H1061 H 0.34894 0.17017 0.59525
 H1062 H 0.37836 0.13710 0.56524
 H1063 H 0.35659 0.08106 0.62376
 H1064 H 0.32724 0.11405 0.65370
 H1065 H 0.40311 0.15648 0.66477
 H1066 H 0.43251 0.12344 0.63479
 C1067 C 0.36032 0.64748 0.13933
 C1068 C 0.36469 0.62125 0.15517
 C1069 C 0.38048 0.60340 0.13911
 C1070 C 0.39038 0.61349 0.10873
 C1071 C 0.40822 0.63864 0.11506
 C1072 C 0.39241 0.65652 0.13116
 C1073 C 0.34527 0.64052 0.10986
 C1074 C 0.36107 0.62265 0.09377
 C1075 C 0.34313 0.66648 0.15682
 C1076 C 0.32862 0.68158 0.17151
 C1077 C 0.40725 0.59401 0.09161
 C1078 C 0.42082 0.57753 0.07800
 H1079 H 0.35615 0.61706 0.17712
 H1080 H 0.38545 0.58393 0.14730
 H1081 H 0.43122 0.64210 0.10755
 H1082 H 0.40186 0.67530 0.13744
 H1083 H 0.32409 0.64891 0.10227
 H1084 H 0.35342 0.61574 0.07241
   
