data_POSCAR
  _audit_creation_date              2014-09-24
  _audit_creation_method            'ToBaCCo'
  _symmetry_space_group_name_H-M    'P1'
  _symmetry_Int_Tables_number       1
  _symmetry_cell_setting            triclinic
  loop_
  _symmetry_equiv_pos_as_xyz
 x,y,z
_cell_length_a 47.7246
_cell_length_b 47.1484
_cell_length_c 46.7610
_cell_angle_alpha 89.807300
_cell_angle_beta 90.139600
_cell_angle_gamma 89.946200
loop_
  _atom_site_label
  _atom_site_type_symbol
  _atom_site_fract_x
  _atom_site_fract_y
  _atom_site_fract_z
C1 C 0.29288 0.33016 0.01498
 C2 C 0.29420 0.33185 -0.01547
 C3 C 0.31265 0.31316 -0.02969
 C4 C 0.32987 0.29348 -0.01508
 C5 C 0.32936 0.29343 0.01539
 C6 C 0.31051 0.31129 0.02964
 H7 H 0.31015 0.31124 0.05284
 H8 H 0.31328 0.31348 -0.05283
 C9 C 0.70721 0.67106 0.01452
 C10 C 0.70735 0.67023 -0.01580
 C11 C 0.68918 0.68844 -0.03100
 C12 C 0.67016 0.70688 -0.01720
 C13 C 0.67047 0.70733 0.01334
 C14 C 0.68870 0.68940 0.02843
 H15 H 0.68861 0.68991 0.05163
 H16 H 0.68923 0.68734 -0.05413
 C17 C 0.70498 0.33064 0.98498
 C18 C 0.70504 0.33148 1.01551
 C19 C 0.68685 0.31276 1.03017
 C20 C 0.66821 0.29450 1.01584
 C21 C 0.66835 0.29429 0.98550
 C22 C 0.68651 0.31241 0.97074
 H23 H 0.68657 0.31203 0.94752
 H24 H 0.68624 0.31309 1.05331
 C25 C 0.29344 0.67105 0.98586
 C26 C 0.29457 0.66979 1.01628
 C27 C 0.31451 0.68673 1.03058
 C28 C 0.33186 0.70624 1.01609
 C29 C 0.33049 0.70719 0.98566
 C30 C 0.31099 0.69006 0.97132
 H31 H 0.31079 0.69012 0.94812
 H32 H 0.31514 0.68616 1.05374
 C33 C 0.01653 0.28743 0.32296
 C34 C -0.01324 0.28660 0.32338
 C35 C -0.02812 0.30469 0.30474
 C36 C -0.01448 0.32388 0.28651
 C37 C 0.01518 0.32521 0.28672
 C38 C 0.03010 0.30679 0.30483
 H39 H 0.05282 0.30749 0.30485
 H40 H -0.05083 0.30466 0.30498
 C41 C 0.01280 0.71460 0.67746
 C42 C -0.01705 0.71384 0.67725
 C43 C -0.03065 0.69357 0.69464
 C44 C -0.01606 0.67467 0.71286
 C45 C 0.01372 0.67679 0.71373
 C46 C 0.02742 0.69650 0.69614
 H47 H 0.05016 0.69687 0.69618
 H48 H -0.05332 0.69294 0.69434
 C49 C 0.98566 0.70577 0.33074
 C50 C 1.01532 0.70510 0.33132
 C51 C 1.02978 0.68664 0.31316
 C52 C 1.01582 0.66909 0.29336
 C53 C 0.98590 0.66930 0.29324
 C54 C 0.97154 0.68785 0.31163
 H55 H 0.94882 0.68770 0.31168
 H56 H 1.05249 0.68687 0.31398
 C57 C 0.98646 0.29416 0.66811
 C58 C 1.01634 0.29444 0.66680
 C59 C 1.03072 0.31282 0.68560
 C60 C 1.01669 0.33095 0.70456
 C61 C 0.98696 0.33122 0.70492
 C62 C 0.97253 0.31248 0.68686
 H63 H 0.94981 0.31241 0.68682
 H64 H 1.05342 0.31337 0.68561
 C65 C 0.33166 0.01267 0.29500
 C66 C 0.33435 -0.01745 0.29598
 C67 C 0.31639 -0.03255 0.31461
 C68 C 0.29607 -0.01912 0.33178
 C69 C 0.29466 0.01107 0.33131
 C70 C 0.31217 0.02618 0.31266
 H71 H 0.31128 0.04918 0.31245
 H72 H 0.31759 -0.05549 0.31517
 C73 C 0.66699 0.01732 0.70511
 C74 C 0.66687 -0.01280 0.70473
 C75 C 0.68570 -0.02692 0.68648
 C76 C 0.70399 -0.01217 0.66811
 C77 C 0.70376 0.01794 0.66868
 C78 C 0.68516 0.03206 0.68689
 H79 H 0.68525 0.05507 0.68733
 H80 H 0.68526 -0.04987 0.68563
 C81 C 0.32676 0.98530 0.70947
 C82 C 0.32922 1.01544 0.70873
 C83 C 0.31083 1.03058 0.69046
 C84 C 0.29047 1.01717 0.67325
 C85 C 0.28925 0.98698 0.67349
 C86 C 0.30706 0.97182 0.69192
 H87 H 0.30635 0.94882 0.69192
 H88 H 0.31183 1.05352 0.69010
 C89 C 0.67202 0.98373 0.29162
 C90 C 0.67164 1.01381 0.29184
 C91 C 0.69057 1.02817 0.30989
 C92 C 0.70919 1.01376 0.32855
 C93 C 0.70910 0.98348 0.32788
 C94 C 0.69055 0.96924 0.30970
 H95 H 0.69071 0.94622 0.30946
 H96 H 0.68986 1.05112 0.31014
 O97 O 0.84196 0.88501 0.52562
 O98 O 0.88346 0.84252 0.47486
 O99 O 0.84468 0.88094 0.47040
 O100 O 0.88210 0.84720 0.53045
 O101 O 0.85058 0.81292 0.53134
 O102 O 0.81180 0.84808 0.47312
 O103 O 0.85093 0.80922 0.47573
 O104 O 0.81094 0.85037 0.52862
 Cu105 Cu 0.86633 0.86727 0.50025
 Cu106 Cu 0.82789 0.82671 0.50229
 C107 C 0.81941 0.87484 0.53579
 C108 C 0.87409 0.81874 0.46645
 C109 C 0.82165 0.87050 0.46188
 C110 C 0.87282 0.82419 0.54095
 O111 O 0.15540 0.11799 0.52930
 O112 O 0.11995 0.15312 0.46871
 O113 O 0.15935 0.11470 0.47423
 O114 O 0.11717 0.15731 0.52411
 O115 O 0.15068 0.18960 0.52538
 O116 O 0.19057 0.14922 0.47201
 O117 O 0.15132 0.18753 0.46990
 O118 O 0.18885 0.15033 0.52790
 Cu119 Cu 0.13467 0.13245 0.49907
 Cu120 Cu 0.17367 0.17248 0.49874
 C121 C 0.17837 0.12795 0.53862
 C122 C 0.12929 0.17660 0.45938
 C123 C 0.18204 0.12488 0.46448
 C124 C 0.12694 0.18058 0.53345
 O125 O 0.15761 0.88069 0.47156
 O126 O 0.11715 0.84400 0.52741
 O127 O 0.15685 0.88308 0.52680
 O128 O 0.11910 0.84216 0.47204
 O129 O 0.15073 0.80805 0.47559
 O130 O 0.18902 0.84943 0.52964
 O131 O 0.15014 0.81126 0.53110
 O132 O 0.18983 0.84706 0.47375
 Cu133 Cu 0.13440 0.86585 0.49939
 Cu134 Cu 0.17323 0.82561 0.50269
 C135 C 0.18054 0.87007 0.46306
 C136 C 0.12664 0.82137 0.53864
 C137 C 0.17948 0.87334 0.53730
 C138 C 0.12840 0.81805 0.46466
 O139 O 0.84414 0.11603 0.47297
 O140 O 0.88212 0.15623 0.52835
 O141 O 0.84332 0.11800 0.52848
 O142 O 0.88415 0.15460 0.47290
 O143 O 0.85143 0.18764 0.46956
 O144 O 0.81120 0.15172 0.52611
 O145 O 0.85052 0.19039 0.52515
 O146 O 0.81209 0.14980 0.47057
 Cu147 Cu 0.86668 0.13280 0.50074
 Cu148 Cu 0.82810 0.17329 0.49767
 C149 C 0.82150 0.12593 0.46260
 C150 C 0.87279 0.18023 0.53606
 C151 C 0.82034 0.12868 0.53679
 C152 C 0.87481 0.17738 0.46188
 O153 O 0.52767 0.84042 0.87764
 O154 O 0.46977 0.87727 0.84097
 O155 O 0.47401 0.83746 0.87951
 O156 O 0.52414 0.88042 0.83854
 O157 O 0.52659 0.84685 0.80578
 O158 O 0.47251 0.80627 0.84435
 O159 O 0.47200 0.84630 0.80569
 O160 O 0.52729 0.80710 0.84451
 Cu161 Cu 0.49892 0.86225 0.86250
 Cu162 Cu 0.49964 0.82336 0.82164
 C163 C 0.53683 0.81714 0.86776
 C164 C 0.46131 0.86830 0.81688
 C165 C 0.46461 0.81467 0.86882
 C166 C 0.53409 0.87084 0.81535
 O167 O 0.52612 0.15901 0.12120
 O168 O 0.46988 0.12139 0.15945
 O169 O 0.47252 0.16131 0.12081
 O170 O 0.52442 0.11886 0.16040
 O171 O 0.52715 0.15223 0.19336
 O172 O 0.47197 0.19266 0.15585
 O173 O 0.47258 0.15252 0.19455
 O174 O 0.52674 0.19190 0.15475
 Cu175 Cu 0.49818 0.13676 0.13715
 Cu176 Cu 0.49967 0.17558 0.17807
 C177 C 0.53551 0.18218 0.13111
 C178 C 0.46190 0.13036 0.18368
 C179 C 0.46344 0.18418 0.13159
 C180 C 0.53481 0.12843 0.18346
 O181 O 0.52712 0.11732 0.84617
 O182 O 0.47112 0.15462 0.88546
 O183 O 0.47279 0.11557 0.84552
 O184 O 0.52597 0.15617 0.88542
 O185 O 0.52479 0.18943 0.85204
 O186 O 0.47126 0.14929 0.81262
 O187 O 0.47027 0.18788 0.85209
 O188 O 0.52559 0.15040 0.81261
 Cu189 Cu 0.49925 0.13262 0.86907
 Cu190 Cu 0.49790 0.17262 0.82906
 C191 C 0.53568 0.12745 0.82256
 C192 C 0.46124 0.17766 0.87547
 C193 C 0.46317 0.12544 0.82216
 C194 C 0.53453 0.17966 0.87537
 O195 O 0.47325 0.84425 0.11628
 O196 O 0.52948 0.88189 0.15476
 O197 O 0.52810 0.84292 0.11589
 O198 O 0.47521 0.88304 0.15650
 O199 O 0.47463 0.84929 0.18938
 O200 O 0.52752 0.80944 0.14907
 O201 O 0.52899 0.84874 0.18827
 O202 O 0.47310 0.81095 0.14963
 Cu203 Cu 0.50138 0.86633 0.13242
 Cu204 Cu 0.50106 0.82624 0.17240
 C205 C 0.46371 0.82114 0.12633
 C206 C 0.53867 0.87177 0.17816
 C207 C 0.53687 0.81938 0.12572
 C208 C 0.46616 0.87308 0.18001
 O209 O 0.88201 0.52690 0.84498
 O210 O 0.84355 0.46916 0.88094
 O211 O 0.88299 0.47243 0.84246
 O212 O 0.84222 0.52427 0.88370
 O213 O 0.81128 0.52710 0.84857
 O214 O 0.84984 0.47190 0.80937
 O215 O 0.81039 0.47193 0.84801
 O216 O 0.85052 0.52716 0.81026
 Cu217 Cu 0.86586 0.49812 0.86654
 Cu218 Cu 0.82727 0.49958 0.82562
 C219 C 0.87311 0.53639 0.82117
 C220 C 0.82019 0.46106 0.87082
 C221 C 0.87332 0.46335 0.81891
 C222 C 0.81996 0.53468 0.87305
 O223 O 0.11661 0.52895 0.15350
 O224 O 0.15603 0.47305 0.11571
 O225 O 0.11652 0.47378 0.15403
 O226 O 0.15610 0.52854 0.11499
 O227 O 0.18791 0.52897 0.14940
 O228 O 0.14865 0.47386 0.18812
 O229 O 0.18835 0.47387 0.14960
 O230 O 0.14868 0.52901 0.18765
 Cu231 Cu 0.13313 0.50105 0.13108
 Cu232 Cu 0.17161 0.50137 0.17212
 C233 C 0.12595 0.53840 0.17708
 C234 C 0.17899 0.46408 0.12619
 C235 C 0.12580 0.46462 0.17779
 C236 C 0.17867 0.53815 0.12563
 O237 O 0.87930 0.47013 0.15583
 O238 O 0.84328 0.52941 0.11965
 O239 O 0.88201 0.52490 0.15926
 O240 O 0.83992 0.47446 0.11734
 O241 O 0.80894 0.47250 0.15233
 O242 O 0.84819 0.52736 0.19136
 O243 O 0.80964 0.52768 0.15198
 O244 O 0.84855 0.47208 0.19101
 Cu245 Cu 0.86437 0.49977 0.13461
 Cu246 Cu 0.82557 0.49987 0.17508
 C247 C 0.87044 0.46147 0.17989
 C248 C 0.81999 0.53818 0.12930
 C249 C 0.87208 0.53493 0.18228
 C250 C 0.81741 0.46464 0.12789
 O251 O 0.11936 0.47376 0.84234
 O252 O 0.15971 0.52760 0.88187
 O253 O 0.11967 0.52951 0.84368
 O254 O 0.15908 0.47334 0.88084
 O255 O 0.19106 0.47413 0.84675
 O256 O 0.15065 0.52919 0.80865
 O257 O 0.19052 0.52948 0.84670
 O258 O 0.15129 0.47414 0.80823
 Cu259 Cu 0.13608 0.50100 0.86549
 Cu260 Cu 0.17404 0.50175 0.82410
 C261 C 0.12859 0.46466 0.81861
 C262 C 0.18205 0.53751 0.87109
 C263 C 0.12841 0.53887 0.81982
 C264 C 0.18206 0.46463 0.87046
 C265 C 0.24300 0.38337 0.06548
 N266 N 0.27135 0.38380 0.06777
 N267 N 0.28709 0.36674 0.05180
 C268 C 0.27507 0.34861 0.03293
 N269 N 0.24665 0.34743 0.03135
 N270 N 0.23091 0.36472 0.04713
 C271 C 0.22588 0.40344 0.08195
 N272 N 0.19872 0.40843 0.07479
 N273 N 0.18368 0.42764 0.08895
 C274 C 0.19521 0.44239 0.11093
 N275 N 0.22228 0.43720 0.11824
 N276 N 0.23738 0.41820 0.10392
 C277 C 0.75762 0.61896 0.06629
 N278 N 0.72983 0.62189 0.07154
 N279 N 0.71400 0.63860 0.05515
 C280 C 0.72531 0.65297 0.03278
 N281 N 0.75330 0.65071 0.02801
 N282 N 0.76913 0.63383 0.04433
 C283 C 0.77454 0.59916 0.08348
 N284 N 0.80113 0.59247 0.07572
 N285 N 0.81580 0.57332 0.09054
 C286 C 0.80446 0.56029 0.11372
 N287 N 0.77798 0.56720 0.12162
 N288 N 0.76327 0.58622 0.10674
 C289 C 0.75550 0.38177 0.93280
 N290 N 0.72716 0.38255 0.93046
 N291 N 0.71121 0.36619 0.94701
 C292 C 0.72300 0.34849 0.96659
 N293 N 0.75140 0.34698 0.96826
 N294 N 0.76735 0.36355 0.95187
 C295 C 0.77285 0.40117 0.91573
 N296 N 0.80020 0.40554 0.92249
 N297 N 0.81543 0.42437 0.90796
 C298 C 0.80392 0.43934 0.88601
 N299 N 0.77667 0.43473 0.87907
 N300 N 0.76139 0.41608 0.89374
 C301 C 0.24756 0.61410 0.93508
 N302 N 0.25085 0.64149 0.92675
 N303 N 0.26527 0.65956 0.94296
 C304 C 0.27703 0.65090 0.96803
 N305 N 0.27469 0.62317 0.97561
 N306 N 0.25986 0.60522 0.95970
 C307 C 0.23044 0.59448 0.91823
 N308 N 0.21531 0.57399 0.93153
 N309 N 0.19953 0.55617 0.91645
 C310 C 0.19865 0.55792 0.88749
 N311 N 0.21395 0.57828 0.87413
 N312 N 0.22935 0.59646 0.88927
 C313 C 0.06755 0.23768 0.37639
 N314 N 0.07212 0.26593 0.37341
 N315 N 0.05596 0.28154 0.35628
 C316 C 0.03452 0.26955 0.34152
 N317 N 0.03044 0.24111 0.34383
 N318 N 0.04652 0.22549 0.36115
 C319 C 0.08446 0.22103 0.39669
 N320 N 0.07716 0.19408 0.40378
 N321 N 0.09168 0.17970 0.42346
 C322 C 0.11409 0.19172 0.43664
 N323 N 0.12154 0.21855 0.42933
 N324 N 0.10694 0.23295 0.40978
 C325 C 0.06199 0.76034 0.61880
 N326 N 0.07062 0.75682 0.64626
 N327 N 0.05482 0.74262 0.66490
 C328 C 0.02987 0.73126 0.65678
 N329 N 0.02190 0.73387 0.62897
 N330 N 0.03742 0.74851 0.61046
 C331 C 0.07888 0.77665 0.59840
 N332 N 0.06629 0.79184 0.57726
 N333 N 0.08154 0.80659 0.55859
 C334 C 0.10994 0.80630 0.56011
 N335 N 0.12255 0.79096 0.58114
 N336 N 0.10728 0.77663 0.60014
 C337 C 0.93715 0.75432 0.38760
 N338 N 0.92857 0.72817 0.37926
 N339 N 0.94398 0.71288 0.36122
 C340 C 0.96862 0.72306 0.35088
 N341 N 0.97687 0.74936 0.35900
 N342 N 0.96155 0.76466 0.37704
 C343 C 0.92053 0.77111 0.40788
 N344 N 0.92971 0.79691 0.41669
 N345 N 0.91489 0.81208 0.43530
 C346 C 0.89031 0.80203 0.44579
 N347 N 0.88109 0.77625 0.43696
 N348 N 0.89594 0.76106 0.41836
 C349 C 0.93498 0.24458 0.61558
 N350 N 0.95293 0.23204 0.63434
 N351 N 0.96915 0.24771 0.65131
 C352 C 0.96840 0.27647 0.64969
 N353 N 0.94997 0.28897 0.63143
 N354 N 0.93359 0.27332 0.61465
 C355 C 0.91800 0.22749 0.59589
 N356 N 0.89698 0.23964 0.58053
 N357 N 0.88226 0.22446 0.56180
 C358 C 0.88821 0.19663 0.55756
 N359 N 0.90921 0.18446 0.57295
 N360 N 0.92378 0.19959 0.59186
 C361 C 0.38320 0.06614 0.24645
 N362 N 0.36499 0.04828 0.23331
 N363 N 0.34831 0.03144 0.24865
 C364 C 0.34970 0.03147 0.27767
 N365 N 0.36742 0.04981 0.29078
 N366 N 0.38389 0.06681 0.27546
 C367 C 0.40259 0.08375 0.22972
 N368 N 0.41746 0.10473 0.24253
 N369 N 0.43597 0.11993 0.22771
 C370 C 0.44048 0.11455 0.19959
 N371 N 0.42556 0.09361 0.18675
 N372 N 0.40688 0.07856 0.20152
 C373 C 0.61468 0.06643 0.75726
 N374 N 0.62962 0.04458 0.76863
 N375 N 0.64648 0.02904 0.75222
 C376 C 0.64865 0.03452 0.72376
 N377 N 0.63417 0.05675 0.71259
 N378 N 0.61747 0.07237 0.72900
 C379 C 0.59514 0.08292 0.77487
 N380 N 0.58234 0.10628 0.76389
 N381 N 0.56374 0.12070 0.77929
 C382 C 0.55713 0.11221 0.80620
 N383 N 0.57000 0.08890 0.81725
 N384 N 0.58872 0.07455 0.80188
 C385 C 0.38004 0.93187 0.75640
 N386 N 0.36195 0.94942 0.77010
 N387 N 0.34470 0.96622 0.75529
 C388 C 0.34536 0.96648 0.72624
 N389 N 0.36297 0.94845 0.71258
 N390 N 0.38002 0.93148 0.72738
 C391 C 0.40010 0.91437 0.77255
 N392 N 0.41494 0.89370 0.75924
 N393 N 0.43407 0.87865 0.77352
 C394 C 0.43924 0.88390 0.80156
 N395 N 0.42436 0.90453 0.81489
 N396 N 0.40505 0.91942 0.80068
 C397 C 0.61886 0.93370 0.24119
 N398 N 0.62221 0.92826 0.26949
 N399 N 0.63917 0.94419 0.28535
 C400 C 0.65337 0.96624 0.27356
 N401 N 0.65063 0.97122 0.24505
 N402 N 0.63349 0.95537 0.22919
 C403 C 0.59902 0.91691 0.22420
 N404 N 0.59195 0.92494 0.19722
 N405 N 0.57293 0.91037 0.18241
 C406 C 0.56041 0.88717 0.19399
 N407 N 0.56767 0.87901 0.22086
 N408 N 0.58656 0.89366 0.23572
 C409 C 0.38027 0.24024 0.93688
 N410 N 0.36973 0.26451 0.92552
 N411 N 0.35316 0.28126 0.94090
 C412 C 0.34662 0.27475 0.96847
 N413 N 0.35643 0.24984 0.97934
 N414 N 0.37303 0.23301 0.96398
 C415 C 0.40025 0.22298 0.92049
 N416 N 0.41138 0.19883 0.93169
 N417 N 0.43055 0.18410 0.91725
 C418 C 0.43934 0.19307 0.89113
 N419 N 0.42809 0.21711 0.87991
 N420 N 0.40892 0.23178 0.89430
 C421 C 0.61491 0.75382 0.93276
 N422 N 0.61438 0.75583 0.96163
 N423 N 0.63196 0.74063 0.97765
 C424 C 0.65114 0.72301 0.96573
 N425 N 0.65141 0.72101 0.93665
 N426 N 0.63365 0.73598 0.92051
 C427 C 0.59538 0.77069 0.91533
 N428 N 0.59048 0.76422 0.88747
 N429 N 0.57203 0.77917 0.87213
 C430 C 0.55809 0.80131 0.88401
 N431 N 0.56321 0.80791 0.91175
 N432 N 0.58142 0.79282 0.92715
 C433 C 0.38300 0.75841 0.06458
 N434 N 0.37536 0.76613 0.03770
 N435 N 0.35864 0.74956 0.02217
 C436 C 0.34909 0.72442 0.03265
 N437 N 0.35609 0.71734 0.05999
 N438 N 0.37281 0.73385 0.07555
 C439 C 0.40293 0.77559 0.08113
 N440 N 0.41198 0.76655 0.10715
 N441 N 0.43107 0.78128 0.12166
 C442 C 0.44183 0.80564 0.11071
 N443 N 0.43264 0.81482 0.08476
 N444 N 0.41356 0.80005 0.07022
 C445 C 0.61190 0.24677 0.06593
 N446 N 0.63593 0.25705 0.07745
 N447 N 0.65375 0.27198 0.06149
 C448 C 0.64820 0.27745 0.03344
 N449 N 0.62369 0.26779 0.02234
 N450 N 0.60606 0.25248 0.03811
 C451 C 0.59254 0.22963 0.08311
 N452 N 0.57513 0.21081 0.07025
 N453 N 0.55738 0.19530 0.08568
 C454 C 0.55613 0.19830 0.11450
 N455 N 0.57344 0.21723 0.12739
 N456 N 0.59151 0.23244 0.11199
 C457 C 0.23877 0.06740 0.62299
 N458 N 0.26360 0.07742 0.63283
 N459 N 0.27986 0.06139 0.64950
 C460 C 0.27225 0.03449 0.65674
 N461 N 0.24681 0.02505 0.64774
 N462 N 0.23048 0.04106 0.63108
 C463 C 0.22209 0.08406 0.60251
 N464 N 0.19755 0.07379 0.59209
 N465 N 0.18336 0.08805 0.57210
 C466 C 0.19325 0.11303 0.56172
 N467 N 0.21767 0.12341 0.57229
 N468 N 0.23183 0.10918 0.59232
 C469 C 0.75771 0.06162 0.38424
 N470 N 0.75886 0.03291 0.38493
 N471 N 0.74321 0.01756 0.36717
 C472 C 0.72597 0.03003 0.34767
 N473 N 0.72487 0.05891 0.34726
 N474 N 0.74029 0.07436 0.36516
 C475 C 0.77478 0.07852 0.40404
 N476 N 0.76938 0.10651 0.40792
 N477 N 0.78444 0.12165 0.42641
 C478 C 0.80563 0.10943 0.44148
 N479 N 0.81119 0.08150 0.43743
 N480 N 0.79597 0.06629 0.41912
 C481 C 0.75324 0.93953 0.61149
 N482 N 0.74273 0.92777 0.63571
 N483 N 0.72733 0.94318 0.65362
 C484 C 0.72161 0.97092 0.64799
 N485 N 0.73157 0.98232 0.62330
 N486 N 0.74732 0.96707 0.60557
 C487 C 0.77065 0.92272 0.59200
 N488 N 0.78881 0.93564 0.57384
 N489 N 0.80467 0.92037 0.55621
 C490 C 0.80268 0.89165 0.55586
 N491 N 0.78442 0.87875 0.57392
 N492 N 0.76886 0.89399 0.59183
 C493 C 0.24411 0.93077 0.38154
 N494 N 0.26908 0.92073 0.37217
 N495 N 0.28549 0.93675 0.35572
 C496 C 0.27788 0.96363 0.34827
 N497 N 0.25235 0.97308 0.35688
 N498 N 0.23588 0.95710 0.37328
 C499 C 0.22694 0.91409 0.40150
 N500 N 0.20216 0.92448 0.41108
 N501 N 0.18726 0.91020 0.43037
 C502 C 0.19659 0.88503 0.44089
 N503 N 0.22129 0.87450 0.43119
 N504 N 0.23619 0.88879 0.41184
 C505 C 0.06630 0.38448 0.75524
 N506 N 0.04540 0.36901 0.76729
 N507 N 0.02977 0.35169 0.75137
 C508 C 0.03419 0.34957 0.72275
 N509 N 0.05549 0.36459 0.71090
 N510 N 0.07121 0.38173 0.72682
 C511 C 0.08295 0.40450 0.77230
 N512 N 0.10569 0.41737 0.76069
 N513 N 0.12036 0.43626 0.77561
 C514 C 0.11274 0.44317 0.80266
 N515 N 0.09001 0.43028 0.81433
 N516 N 0.07541 0.41124 0.79945
 C517 C 0.06418 0.61914 0.23999
 N518 N 0.07492 0.62978 0.26458
 N519 N 0.05941 0.64622 0.28139
 C520 C 0.03235 0.65248 0.27460
 N521 N 0.02209 0.64260 0.24936
 N522 N 0.03758 0.62615 0.23248
 C523 C 0.08069 0.59926 0.22269
 N524 N 0.07020 0.58829 0.19807
 N525 N 0.08474 0.56917 0.18327
 C526 C 0.11023 0.56024 0.19264
 N527 N 0.12076 0.57132 0.21717
 N528 N 0.10627 0.59047 0.23190
 C529 C 0.93397 0.37967 0.24029
 N530 N 0.93310 0.37883 0.26929
 N531 N 0.94964 0.36116 0.28388
 C532 C 0.96776 0.34378 0.27004
 N533 N 0.96799 0.34400 0.24101
 N534 N 0.95162 0.36183 0.22640
 C535 C 0.91664 0.40005 0.22428
 N536 N 0.92169 0.40527 0.19620
 N537 N 0.90675 0.42463 0.18198
 C538 C 0.88606 0.43930 0.19525
 N539 N 0.88083 0.43389 0.22327
 N540 N 0.89592 0.41469 0.23755
 C541 C 0.93710 0.61628 0.75917
 N542 N 0.92459 0.63434 0.74049
 N543 N 0.93976 0.65299 0.72573
 C544 C 0.96813 0.65439 0.72874
 N545 N 0.98043 0.63587 0.74724
 N546 N 0.96533 0.61734 0.76225
 C547 C 0.92034 0.59589 0.77565
 N548 N 0.93166 0.58183 0.79829
 N549 N 0.91646 0.56322 0.81311
 C550 C 0.88945 0.55786 0.80571
 N551 N 0.87815 0.57189 0.78305
 N552 N 0.89327 0.59068 0.76839
 C553 C 0.75559 0.61256 0.93646
 N554 N 0.74905 0.60685 0.96409
 N555 N 0.73364 0.62497 0.97916
 C556 C 0.72469 0.64982 0.96751
 N557 N 0.73102 0.65525 0.93968
 N558 N 0.74608 0.63696 0.92443
 C559 C 0.77260 0.59263 0.91992
 N560 N 0.77094 0.59213 0.89094
 N561 N 0.78608 0.57368 0.87597
 C562 C 0.80376 0.55540 0.88943
 N563 N 0.80562 0.55608 0.91838
 N564 N 0.79017 0.57425 0.93338
 C565 C 0.24767 0.38826 0.93532
 N566 N 0.24546 0.38825 0.96419
 N567 N 0.26063 0.37041 0.97999
 C568 C 0.27840 0.35149 0.96782
 N569 N 0.28070 0.35191 0.93876
 N570 N 0.26575 0.36992 0.92285
 C571 C 0.23048 0.40764 0.91805
 N572 N 0.20834 0.42115 0.93002
 N573 N 0.19268 0.43891 0.91462
 C574 C 0.19869 0.44397 0.88672
 N575 N 0.22087 0.43050 0.87470
 N576 N 0.23640 0.41250 0.89006
 C577 C 0.24197 0.61942 0.06494
 N578 N 0.26661 0.62889 0.07577
 N579 N 0.28326 0.64547 0.06019
 C580 C 0.27618 0.65303 0.03300
 N581 N 0.25093 0.64434 0.02275
 N582 N 0.23424 0.62775 0.03828
 C583 C 0.22471 0.59938 0.08127
 N584 N 0.20056 0.58895 0.07007
 N585 N 0.18570 0.56963 0.08432
 C586 C 0.19451 0.56000 0.11022
 N587 N 0.21856 0.57056 0.12147
 N588 N 0.23341 0.58987 0.10724
 C589 C 0.75237 0.38781 0.06354
 N590 N 0.73581 0.36829 0.07649
 N591 N 0.72072 0.35020 0.06096
 C592 C 0.72138 0.35085 0.03183
 N593 N 0.73767 0.37086 0.01919
 N594 N 0.75298 0.38880 0.03460
 C595 C 0.76941 0.40751 0.08045
 N596 N 0.79025 0.42259 0.06786
 N597 N 0.80575 0.44055 0.08309
 C598 C 0.80081 0.44426 0.11140
 N599 N 0.77991 0.42925 0.12399
 N600 N 0.76457 0.41107 0.10881
 C601 C 0.93377 0.76583 0.62627
 N602 N 0.96004 0.77397 0.63374
 N603 N 0.97576 0.75759 0.65066
 C604 C 0.96608 0.73225 0.66048
 N605 N 0.93930 0.72487 0.65380
 N606 N 0.92356 0.74117 0.63693
 C607 C 0.91725 0.78224 0.60552
 N608 N 0.89209 0.77235 0.59641
 N609 N 0.87778 0.78600 0.57614
 C610 C 0.88811 0.81007 0.56420
 N611 N 0.91317 0.82017 0.57348
 N612 N 0.92752 0.80646 0.59375
 C613 C 0.93920 0.23826 0.38152
 N614 N 0.96650 0.24404 0.38706
 N615 N 0.98160 0.25934 0.36873
 C616 C 0.97027 0.26892 0.34383
 N617 N 0.94282 0.26324 0.33853
 N618 N 0.92755 0.24831 0.35702
 C619 C 0.92243 0.22187 0.40191
 N620 N 0.89414 0.22483 0.40260
 N621 N 0.87894 0.21052 0.42164
 C622 C 0.89143 0.19239 0.44034
 N623 N 0.91968 0.18919 0.43945
 N624 N 0.93494 0.20382 0.42068
 C625 C 0.06328 0.24657 0.61005
 N626 N 0.03494 0.24507 0.60983
 N627 N 0.01986 0.26059 0.62787
 C628 C 0.03227 0.27801 0.64720
 N629 N 0.06077 0.27953 0.64707
 N630 N 0.07595 0.26423 0.62888
 C631 C 0.07989 0.22931 0.59030
 N632 N 0.10750 0.23480 0.58619
 N633 N 0.12250 0.21924 0.56808
 C634 C 0.11049 0.19744 0.55366
 N635 N 0.08292 0.19184 0.55789
 N636 N 0.06786 0.20757 0.57581
 C637 C 0.06544 0.75339 0.38621
 N638 N 0.06556 0.72464 0.38780
 N639 N 0.04933 0.70934 0.37053
 C640 C 0.03229 0.72225 0.35117
 N641 N 0.03287 0.75095 0.34896
 N642 N 0.04889 0.76627 0.36640
 C643 C 0.08248 0.77031 0.40591
 N644 N 0.07750 0.79848 0.40903
 N645 N 0.09231 0.81372 0.42761
 C646 C 0.11281 0.80141 0.44354
 N647 N 0.11798 0.77329 0.44025
 N648 N 0.10299 0.75798 0.42185
 C649 C 0.61006 0.93711 0.75157
 N650 N 0.63423 0.92583 0.74149
 N651 N 0.65223 0.94181 0.72686
 C652 C 0.64673 0.96965 0.72154
 N653 N 0.62211 0.98056 0.73103
 N654 N 0.60428 0.96474 0.74603
 C655 C 0.59052 0.91980 0.76829
 N656 N 0.57246 0.93221 0.78681
 N657 N 0.55475 0.91654 0.80212
 C658 C 0.55421 0.88792 0.79915
 N659 N 0.57216 0.87550 0.78051
 N660 N 0.59017 0.89115 0.76551
 C661 C 0.39077 0.93640 0.24726
 N662 N 0.38963 0.96503 0.24498
 N663 N 0.37181 0.97991 0.26087
 C664 C 0.35410 0.96697 0.27950
 N665 N 0.35564 0.93820 0.28181
 N666 N 0.37359 0.92325 0.26614
 C667 C 0.41013 0.91992 0.22955
 N668 N 0.41499 0.89213 0.23537
 N669 N 0.43272 0.87718 0.21944
 C670 C 0.44600 0.88939 0.19692
 N671 N 0.44102 0.91714 0.19096
 N672 N 0.42344 0.93216 0.20704
 C673 C 0.61339 0.06310 0.24548
 N674 N 0.60808 0.03542 0.25121
 N675 N 0.62638 0.01986 0.26601
 C676 C 0.65103 0.03108 0.27513
 N677 N 0.65608 0.05895 0.26962
 N678 N 0.63761 0.07468 0.25518
 C679 C 0.59324 0.08017 0.22912
 N680 N 0.59249 0.10880 0.23198
 N681 N 0.57385 0.12421 0.21741
 C682 C 0.55564 0.11158 0.19912
 N683 N 0.55657 0.08298 0.19605
 N684 N 0.57492 0.06753 0.21094
 C685 C 0.38649 0.06168 0.75653
 N686 N 0.38546 0.03304 0.75889
 N687 N 0.36733 0.01813 0.74333
 C688 C 0.34921 0.03104 0.72497
 N689 N 0.35063 0.05981 0.72262
 N690 N 0.36887 0.07479 0.73796
 C691 C 0.40624 0.07825 0.77381
 N692 N 0.41085 0.10603 0.76780
 N693 N 0.42889 0.12108 0.78333
 C694 C 0.44275 0.10898 0.80563
 N695 N 0.43803 0.08123 0.81177
 N696 N 0.42014 0.06611 0.79609
 C697 C 0.61650 0.75626 0.06357
 N698 N 0.63526 0.76905 0.04596
 N699 N 0.65272 0.75359 0.03015
 C700 C 0.65157 0.72481 0.03096
 N701 N 0.63328 0.71208 0.04908
 N702 N 0.61605 0.72752 0.06508
 C703 C 0.59650 0.77304 0.08023
 N704 N 0.58180 0.76079 0.10178
 N705 N 0.56300 0.77568 0.11644
 C706 C 0.55798 0.80327 0.10986
 N707 N 0.57265 0.81555 0.08827
 N708 N 0.59166 0.80072 0.07378
 C709 C 0.38712 0.24966 0.06712
 N710 N 0.36010 0.25267 0.07552
 N711 N 0.34176 0.26639 0.05897
 C712 C 0.34976 0.27766 0.03347
 N713 N 0.37711 0.27563 0.02577
 N714 N 0.39534 0.26148 0.04203
 C715 C 0.40695 0.23298 0.08418
 N716 N 0.42715 0.21761 0.07102
 N717 N 0.44493 0.20185 0.08624
 C718 C 0.44343 0.20127 0.11520
 N719 N 0.42340 0.21687 0.12846
 N720 N 0.40525 0.23224 0.11317
 C721 C 0.61476 0.24354 0.93634
 N722 N 0.63037 0.23181 0.95764
 N723 N 0.64775 0.24776 0.97310
 C724 C 0.64979 0.27608 0.96809
 N725 N 0.63467 0.28762 0.94635
 N726 N 0.61746 0.27167 0.93079
 C727 C 0.59464 0.22645 0.92003
 N728 N 0.58141 0.23768 0.89688
 N729 N 0.56245 0.22264 0.88254
 C730 C 0.55584 0.19590 0.89094
 N731 N 0.56907 0.18463 0.91409
 N732 N 0.58818 0.19963 0.92835
 C733 C 0.38836 0.75026 0.93385
 N734 N 0.39668 0.73809 0.95878
 N735 N 0.37840 0.72420 0.97508
 C736 C 0.35093 0.72278 0.96759
 N737 N 0.34280 0.73443 0.94226
 N738 N 0.36118 0.74790 0.92567
 C739 C 0.40827 0.76656 0.91668
 N740 N 0.40609 0.76752 0.88773
 N741 N 0.42425 0.78261 0.87231
 C742 C 0.44479 0.79770 0.88540
 N743 N 0.44679 0.79690 0.91433
 N744 N 0.42899 0.78141 0.92968
 C745 C 0.75856 0.93122 0.38006
 N746 N 0.77080 0.94942 0.36131
 N747 N 0.75517 0.96593 0.34444
 C748 C 0.72677 0.96527 0.34624
 N749 N 0.71458 0.94657 0.36448
 N750 N 0.73019 0.92989 0.38112
 C751 C 0.77553 0.91419 0.39986
 N752 N 0.76364 0.89289 0.41518
 N753 N 0.77856 0.87846 0.43445
 C754 C 0.80584 0.88501 0.43927
 N755 N 0.81779 0.90622 0.42384
 N756 N 0.80293 0.92049 0.40439
 C757 C 0.24234 0.93805 0.61570
 N758 N 0.25432 0.96271 0.60710
 N759 N 0.26935 0.97815 0.62534
 C760 C 0.27222 0.97002 0.65310
 N761 N 0.26069 0.94499 0.66146
 N762 N 0.24609 0.92926 0.64309
 C763 C 0.22566 0.92121 0.59566
 N764 N 0.22529 0.89248 0.59754
 N765 N 0.21051 0.87719 0.57894
 C766 C 0.19513 0.89013 0.55820
 N767 N 0.19525 0.91887 0.55653
 N768 N 0.21043 0.93414 0.57479
 C769 C 0.24752 0.06028 0.38849
 N770 N 0.25955 0.03568 0.39733
 N771 N 0.27467 0.02015 0.37930
 C772 C 0.27758 0.02813 0.35151
 N773 N 0.26599 0.05310 0.34292
 N774 N 0.25130 0.06891 0.36107
 C775 C 0.23053 0.07711 0.40820
 N776 N 0.22972 0.10581 0.40597
 N777 N 0.21434 0.12109 0.42401
 C778 C 0.19880 0.10814 0.44452
 N779 N 0.19940 0.07943 0.44656
 N780 N 0.21517 0.06419 0.42886
 C781 C 0.75532 0.06844 0.61711
 N782 N 0.72746 0.07374 0.61905
 N783 N 0.71121 0.05773 0.63561
 C784 C 0.72219 0.03574 0.65076
 N785 N 0.75023 0.03097 0.64950
 N786 N 0.76647 0.04689 0.63277
 C787 C 0.77278 0.08499 0.59742
 N788 N 0.79937 0.07672 0.59149
 N789 N 0.81466 0.09087 0.57240
 C790 C 0.80393 0.11387 0.55867
 N791 N 0.77744 0.12232 0.56480
 N792 N 0.76210 0.10807 0.58377
 C793 C 0.93621 0.61166 0.24737
 N794 N 0.96067 0.60313 0.25946
 N795 N 0.97630 0.62130 0.27427
 C796 C 0.96855 0.64891 0.27676
 N797 N 0.94368 0.65721 0.26521
 N798 N 0.92777 0.63891 0.25084
 C799 C 0.91944 0.59183 0.23045
 N800 N 0.89108 0.59386 0.22983
 N801 N 0.87591 0.57564 0.21452
 C802 C 0.88865 0.55517 0.19886
 N803 N 0.91702 0.55334 0.19927
 N804 N 0.93214 0.57121 0.21498
 C805 C 0.93813 0.38776 0.75337
 N806 N 0.92691 0.36349 0.74295
 N807 N 0.94256 0.34557 0.72789
 C808 C 0.96997 0.35124 0.72244
 N809 N 0.98085 0.37596 0.73231
 N810 N 0.96537 0.39371 0.74776
 C811 C 0.92117 0.40717 0.77051
 N812 N 0.93356 0.42479 0.78960
 N813 N 0.91819 0.44237 0.80533
 C814 C 0.88992 0.44322 0.80226
 N815 N 0.87751 0.42574 0.78303
 N816 N 0.89286 0.40783 0.76760
 C817 C 0.06539 0.62157 0.76031
 N818 N 0.04815 0.63986 0.77415
 N819 N 0.03191 0.65776 0.75946
 C820 C 0.03195 0.65756 0.73040
 N821 N 0.04968 0.63976 0.71663
 N822 N 0.06609 0.62207 0.73131
 C823 C 0.08242 0.60092 0.77623
 N824 N 0.10314 0.58639 0.76285
 N825 N 0.11800 0.56688 0.77688
 C826 C 0.11249 0.56095 0.80473
 N827 N 0.09177 0.57547 0.81814
 N828 N 0.07706 0.59519 0.80416
 C829 C 0.06267 0.38409 0.23974
 N830 N 0.07045 0.37632 0.26657
 N831 N 0.05520 0.35780 0.28141
 C832 C 0.03151 0.34639 0.27009
 N833 N 0.02400 0.35399 0.24314
 N834 N 0.03918 0.37256 0.22827
 C835 C 0.07931 0.40469 0.22346
 N836 N 0.07075 0.41354 0.19720
 N837 N 0.08567 0.43252 0.18257
 C838 C 0.10972 0.44327 0.19364
 N839 N 0.11834 0.43435 0.21986
 N840 N 0.10339 0.41541 0.23451
   
