data_POSCAR
  _audit_creation_date              2014-09-24
  _audit_creation_method            'ToBaCCo'
  _symmetry_space_group_name_H-M    'P1'
  _symmetry_Int_Tables_number       1
  _symmetry_cell_setting            triclinic
  loop_
  _symmetry_equiv_pos_as_xyz
 x,y,z
_cell_length_a 20.1183
_cell_length_b 20.1186
_cell_length_c 20.0590
_cell_angle_alpha 89.827400
_cell_angle_beta 90.164100
_cell_angle_gamma 89.999700
loop_
  _atom_site_label
  _atom_site_type_symbol
  _atom_site_fract_x
  _atom_site_fract_y
  _atom_site_fract_z
O1 O 0.59325 0.16752 0.00726
 O2 O 0.66794 0.08156 0.00307
 C3 C 0.65345 0.14437 0.00663
 O4 O 0.40727 -0.00519 0.16841
 O5 O 0.33298 0.00003 0.08167
 C6 C 0.34715 -0.00410 0.14473
 O7 O 0.59241 0.00452 0.16966
 O8 O 0.66755 0.00024 0.08438
 C9 C 0.65304 0.00333 0.14750
 O10 O 0.40827 0.16771 -0.00376
 O11 O 0.33351 0.08180 0.00044
 C12 C 0.34804 0.14460 -0.00324
 Zr13 Zr 0.50072 0.11862 0.00194
 O14 O 0.49266 0.19219 0.07679
 O15 O 0.50883 0.19351 -0.07199
 Zr16 Zr 0.50013 0.00004 0.12001
 O17 O 0.49204 0.07396 0.19449
 O18 O 0.50763 -0.07435 0.19457
 O19 O 0.56021 0.06860 0.07082
 O20 O 0.44224 0.06807 0.06937
 O21 O 0.40844 0.00595 -0.16636
 O22 O 0.33359 0.00120 -0.08052
 C23 C 0.34818 0.00496 -0.14343
 O24 O 0.59304 -0.16642 -0.00358
 O25 O 0.66781 -0.08064 0.00225
 C26 C 0.65326 -0.14335 -0.00232
 O27 O 0.40806 -0.16644 0.00560
 O28 O 0.33340 -0.08047 0.00063
 C29 C 0.34787 -0.14329 0.00436
 O30 O 0.59341 -0.00436 -0.16537
 O31 O 0.66800 0.00041 -0.07889
 C32 C 0.65357 -0.00367 -0.14193
 Zr33 Zr 0.50093 0.00129 -0.11673
 O34 O 0.49319 -0.07166 -0.19223
 O35 O 0.50923 0.07666 -0.19019
 Zr36 Zr 0.50057 -0.11745 0.00149
 O37 O 0.49279 -0.19176 -0.07267
 O38 O 0.50832 -0.19170 0.07619
 Zr39 Zr 0.60092 0.00049 0.00230
 Zr40 Zr 0.40039 0.00063 0.00101
 O41 O 0.44274 -0.06681 -0.06680
 O42 O 0.56042 -0.06749 -0.06672
 O43 O 0.44111 0.06944 -0.06718
 O44 O 0.55848 -0.06754 0.06988
 O45 O 0.55906 0.06863 -0.06579
 O46 O 0.44058 -0.06814 0.06978
 H47 H 0.41247 0.09574 0.09711
 H48 H 0.58805 -0.09555 0.09783
 H49 H 0.41326 -0.09454 -0.09495
 H50 H 0.58887 0.09645 -0.09350
 H51 H 0.47083 -0.10615 0.18745
 H52 H 0.47066 -0.18575 0.10718
 H53 H 0.52941 -0.18471 -0.10471
 H54 H 0.52873 -0.10473 -0.18434
 H55 H 0.47083 0.10690 -0.18510
 H56 H 0.47261 0.18642 -0.10463
 H57 H 0.53010 0.18584 0.10823
 H58 H 0.52924 0.10548 0.18827
 O59 O 0.00560 0.40741 -0.16825
 O60 O 0.00069 0.33304 -0.08157
 C61 C 0.00460 0.34727 -0.14462
 O62 O 0.16757 0.59305 0.00378
 O63 O 0.08172 0.66781 -0.00179
 C64 C 0.14449 0.65327 0.00250
 O65 O 0.16759 0.40811 -0.00539
 O66 O 0.08168 0.33343 -0.00038
 C67 C 0.14448 0.34791 -0.00421
 O68 O -0.00408 0.59254 -0.16934
 O69 O 0.00047 0.66760 -0.08400
 C70 C -0.00281 0.65315 -0.14713
 Zr71 Zr 0.00062 0.50020 -0.11977
 O72 O 0.07475 0.50778 -0.19415
 O73 O -0.07357 0.49221 -0.19442
 Zr74 Zr 0.11857 0.50056 -0.00102
 O75 O 0.19285 0.50831 -0.07523
 O76 O 0.19279 0.49277 0.07368
 O77 O 0.06898 0.44062 -0.06944
 O78 O 0.06837 0.55851 -0.06947
 O79 O -0.16640 0.59329 -0.00700
 O80 O -0.08039 0.66795 -0.00284
 C81 C -0.14322 0.65348 -0.00631
 O82 O -0.00479 0.40835 0.16652
 O83 O 0.00018 0.33355 0.08071
 C84 C -0.00391 0.34811 0.14357
 O85 O 0.00548 0.59334 0.16569
 O86 O 0.00090 0.66796 0.07918
 C87 C 0.00466 0.65351 0.14226
 O88 O -0.16656 0.40827 0.00405
 O89 O -0.08069 0.33350 -0.00042
 C90 C -0.14345 0.34804 0.00355
 Zr91 Zr -0.11751 0.50071 -0.00193
 O92 O -0.19248 0.50881 0.07146
 O93 O -0.19105 0.49263 -0.07725
 Zr94 Zr 0.00042 0.50083 0.11698
 O95 O -0.07385 0.50904 0.19112
 O96 O 0.07451 0.49298 0.19179
 Zr97 Zr 0.00048 0.40035 -0.00083
 Zr98 Zr 0.00060 0.60088 -0.00200
 O99 O -0.06723 0.55891 0.06595
 O100 O -0.06801 0.44112 0.06727
 O101 O -0.06778 0.56025 -0.07068
 O102 O 0.06823 0.44260 0.06712
 O103 O -0.06723 0.44226 -0.06929
 O104 O 0.06891 0.56044 0.06712
 H105 H 0.09626 0.58806 -0.09741
 H106 H 0.09598 0.41298 0.09528
 H107 H -0.09503 0.58858 0.09366
 H108 H -0.09504 0.41248 -0.09704
 H109 H 0.18616 0.52981 0.10527
 H110 H 0.10628 0.52989 0.18505
 H111 H -0.10533 0.47181 0.18487
 H112 H -0.18495 0.47306 0.10457
 H113 H -0.18537 0.53064 -0.10809
 H114 H -0.10521 0.52925 -0.18805
 H115 H 0.10641 0.47079 -0.18720
 H116 H 0.18623 0.47126 -0.10685
 O117 O -0.16728 -0.00713 0.59355
 O118 O -0.08094 -0.00225 0.66825
 C119 C -0.14380 -0.00621 0.65389
 O120 O 0.00482 -0.16735 0.40698
 O121 O -0.00105 -0.08117 0.33215
 C122 C 0.00345 -0.14398 0.34660
 O123 O -0.00376 -0.16831 0.59257
 O124 O 0.00029 -0.08292 0.66786
 C125 C -0.00268 -0.14572 0.65308
 O126 O -0.16849 0.00289 0.40794
 O127 O -0.08317 -0.00037 0.33251
 C128 C -0.14596 0.00240 0.34738
 Zr129 Zr -0.11890 -0.00159 0.50053
 O130 O -0.19289 -0.07607 0.49302
 O131 O -0.19336 0.07234 0.50856
 Zr132 Zr -0.00023 -0.11885 0.49992
 O133 O -0.07443 -0.19312 0.49217
 O134 O 0.07406 -0.19309 0.50743
 O135 O -0.06854 -0.06995 0.56022
 O136 O -0.06856 -0.06876 0.44189
 O137 O -0.00702 0.16655 0.40752
 O138 O -0.00253 0.08099 0.33243
 C139 C -0.00627 0.14373 0.34711
 O140 O 0.16664 0.00469 0.59241
 O141 O 0.08123 -0.00076 0.66764
 C142 C 0.14392 0.00350 0.65286
 O143 O 0.16578 -0.00488 0.40726
 O144 O 0.07968 -0.00010 0.33230
 C145 C 0.14254 -0.00396 0.34690
 O146 O 0.00399 0.16596 0.59270
 O147 O 0.00000 0.07992 0.66781
 C148 C 0.00363 0.14277 0.65311
 Zr149 Zr -0.00169 0.11712 0.50016
 O150 O 0.07151 0.19232 0.49211
 O151 O -0.07686 0.19033 0.50836
 Zr152 Zr 0.11707 -0.00012 0.49986
 O153 O 0.19049 0.07490 0.49166
 O154 O 0.19210 -0.07358 0.50764
 Zr155 Zr -0.00033 -0.00127 0.60079
 Zr156 Zr -0.00145 -0.00044 0.39944
 O157 O 0.06611 0.06752 0.44166
 O158 O 0.06738 0.06774 0.55991
 O159 O -0.07012 0.06733 0.44038
 O160 O 0.06756 -0.06843 0.55816
 O161 O -0.06872 0.06625 0.55876
 O162 O 0.06758 -0.06858 0.43996
 H163 H -0.09632 -0.09670 0.41222
 H164 H 0.09580 -0.09619 0.58771
 H165 H 0.09367 0.09556 0.41189
 H166 H -0.09646 0.09380 0.58864
 H167 H 0.10586 -0.18586 0.47061
 H168 H 0.18504 -0.10574 0.47112
 H169 H 0.18461 0.10575 0.52948
 H170 H 0.10434 0.18496 0.52817
 H171 H -0.10793 0.18432 0.47056
 H172 H -0.18744 0.10377 0.47104
 H173 H -0.18557 -0.10805 0.52985
 H174 H -0.10514 -0.18754 0.53016
 C175 C -0.22571 0.17747 -0.00454
 C176 C -0.29223 0.19407 0.00931
 C177 C -0.30788 0.26044 0.02407
 C178 C -0.25918 0.30935 0.02313
 C179 C -0.19304 0.29369 0.00744
 C180 C -0.17641 0.22698 -0.00545
 H181 H -0.21209 0.12671 -0.01601
 H182 H -0.35827 0.27513 0.03588
 H183 H -0.27385 0.35989 0.03431
 H184 H -0.12580 0.21333 -0.01751
 C185 C 0.30922 0.74060 0.02182
 C186 C 0.29355 0.80701 0.00682
 C187 C 0.22695 0.82372 -0.00702
 C188 C 0.17756 0.77429 -0.00753
 C189 C 0.19417 0.70756 0.00579
 C190 C 0.26044 0.69178 0.02131
 H191 H 0.35967 0.72580 0.03363
 H192 H 0.21331 0.87452 -0.01866
 H193 H 0.12686 0.78802 -0.01952
 H194 H 0.27515 0.64123 0.03276
 C195 C 0.30937 0.26062 -0.02165
 C196 C 0.29370 0.19427 -0.00651
 C197 C 0.22705 0.17756 0.00668
 C198 C 0.17760 0.22694 0.00648
 C199 C 0.19420 0.29362 -0.00694
 C200 C 0.26053 0.30939 -0.02187
 H201 H 0.35987 0.27540 -0.03299
 H202 H 0.21340 0.12679 0.01841
 H203 H 0.12686 0.21321 0.01803
 H204 H 0.27525 0.35991 -0.03337
 C205 C -0.30823 0.74099 -0.02229
 C206 C -0.29244 0.80704 -0.00623
 C207 C -0.22565 0.82356 0.00676
 C208 C -0.17617 0.77425 0.00554
 C209 C -0.19289 0.70783 -0.00871
 C210 C -0.25934 0.69228 -0.02353
 H211 H -0.35883 0.72638 -0.03357
 H212 H -0.21191 0.87411 0.01907
 H213 H -0.12534 0.78778 0.01708
 H214 H -0.27413 0.64197 -0.03562
 C215 C -0.00685 -0.22572 0.17552
 C216 C 0.00765 -0.29223 0.19202
 C217 C 0.02360 -0.30800 0.25843
 C218 C 0.02319 -0.25945 0.30750
 C219 C 0.00685 -0.19334 0.29198
 C220 C -0.00724 -0.17657 0.22521
 H221 H -0.01923 -0.21202 0.12474
 H222 H 0.03600 -0.35837 0.27305
 H223 H 0.03530 -0.27424 0.35806
 H224 H -0.01985 -0.12596 0.21167
 C225 C 0.02337 0.30775 0.73964
 C226 C 0.00756 0.29262 0.80609
 C227 C -0.00659 0.22619 0.82326
 C228 C -0.00679 0.17646 0.77416
 C229 C 0.00716 0.19258 0.70732
 C230 C 0.02319 0.25864 0.69116
 H231 H 0.03549 0.35804 0.72456
 H232 H -0.01882 0.21296 0.87414
 H233 H -0.01920 0.12594 0.78818
 H234 H 0.03520 0.27295 0.64051
 C235 C -0.02255 0.30923 0.25983
 C236 C -0.00744 0.29370 0.19339
 C237 C 0.00515 0.22698 0.17658
 C238 C 0.00440 0.17730 0.22596
 C239 C -0.00899 0.19371 0.29276
 C240 C -0.02335 0.26012 0.30863
 H241 H -0.03343 0.35979 0.27465
 H242 H 0.01679 0.21343 0.12572
 H243 H 0.01557 0.12652 0.21217
 H244 H -0.03475 0.27469 0.35926
 C245 C -0.00086 -0.22928 0.82457
 C246 C -0.00421 -0.29724 0.80687
 C247 C -0.00846 -0.31300 0.73844
 C248 C -0.00850 -0.26368 0.68995
 C249 C -0.00416 -0.19628 0.70722
 C250 C -0.00071 -0.17939 0.77518
 H251 H 0.00231 -0.21438 0.87634
 H252 H -0.01160 -0.36394 0.72131
 H253 H -0.01162 -0.27905 0.63834
 H254 H 0.00254 -0.12782 0.79015
 C255 C 0.30931 0.02173 0.73992
 C256 C 0.29379 0.00755 0.80666
 C257 C 0.22716 -0.00538 0.82363
 C258 C 0.17754 -0.00579 0.77418
 C259 C 0.19394 0.00674 0.70714
 C260 C 0.26027 0.02134 0.69105
 H261 H 0.35980 0.03277 0.72493
 H262 H 0.21363 -0.01639 0.87471
 H263 H 0.12682 -0.01706 0.78817
 H264 H 0.27484 0.03212 0.64021
 C265 C -0.31320 0.00870 0.26195
 C266 C -0.29740 0.00461 0.19354
 C267 C -0.22943 0.00132 0.17589
 C268 C -0.17958 0.00100 0.22531
 C269 C -0.19651 0.00425 0.29325
 C270 C -0.26392 0.00858 0.31048
 H271 H -0.36416 0.01180 0.27903
 H272 H -0.21449 -0.00171 0.12413
 H273 H -0.12801 -0.00225 0.21036
 H274 H -0.27930 0.01156 0.36208
 C275 C 0.30747 -0.02365 0.26037
 C276 C 0.29244 -0.00726 0.19396
 C277 C 0.22608 0.00730 0.17678
 C278 C 0.17631 0.00733 0.22586
 C279 C 0.19233 -0.00720 0.29268
 C280 C 0.25832 -0.02365 0.30883
 H281 H 0.35769 -0.03611 0.27545
 H282 H 0.21294 0.02000 0.12592
 H283 H 0.12585 0.02005 0.21185
 H284 H 0.27256 -0.03614 0.35945
 C285 C -0.30797 -0.02431 0.74229
 C286 C -0.29216 -0.00757 0.80840
 C287 C -0.22553 0.00645 0.82472
 C288 C -0.17630 0.00571 0.77511
 C289 C -0.19312 -0.00909 0.70859
 C290 C -0.25935 -0.02506 0.69330
 H291 H -0.35843 -0.03644 0.72784
 H292 H -0.21177 0.01934 0.87529
 H293 H -0.12561 0.01811 0.78846
 H294 H -0.27417 -0.03766 0.64294
   
