data_POSCAR
  _audit_creation_date              2014-09-24
  _audit_creation_method            'ToBaCCo'
  _symmetry_space_group_name_H-M    'P1'
  _symmetry_Int_Tables_number       1
  _symmetry_cell_setting            triclinic
  loop_
  _symmetry_equiv_pos_as_xyz
 x,y,z
_cell_length_a 36.8561
_cell_length_b 43.4812
_cell_length_c 21.5717
_cell_angle_alpha 90.094300
_cell_angle_beta 89.911400
_cell_angle_gamma 90.183000
loop_
  _atom_site_label
  _atom_site_type_symbol
  _atom_site_fract_x
  _atom_site_fract_y
  _atom_site_fract_z
C1 C 0.18272 0.24713 0.12066
 C2 C 0.20045 0.21916 0.13359
 C3 C 0.22906 0.21966 0.17709
 C4 C 0.23755 0.24640 0.21126
 C5 C 0.21661 0.27297 0.20126
 C6 C 0.19006 0.27398 0.15481
 C7 C 0.26808 0.24681 0.25727
 C8 C 0.28597 0.27460 0.27161
 C9 C 0.31333 0.27578 0.31649
 C10 C 0.32445 0.24853 0.34520
 C11 C 0.30853 0.21995 0.33011
 C12 C 0.27963 0.21968 0.28711
 H13 H 0.16156 0.24786 0.08625
 H14 H 0.24551 0.19935 0.18274
 H15 H 0.22039 0.29294 0.23042
 H16 H 0.27867 0.29565 0.24823
 H17 H 0.34746 0.24972 0.37623
 H18 H 0.26510 0.19845 0.27893
 C19 C 0.81832 0.24744 0.14018
 C20 C 0.81121 0.27477 0.17287
 C21 C 0.78546 0.27404 0.22108
 C22 C 0.76586 0.24699 0.23502
 C23 C 0.77427 0.21986 0.20216
 C24 C 0.80121 0.21976 0.15623
 C25 C 0.73702 0.24716 0.28403
 C26 C 0.72839 0.22030 0.31745
 C27 C 0.70026 0.21981 0.36188
 C28 C 0.68316 0.24790 0.37650
 C29 C 0.69088 0.27499 0.34343
 C30 C 0.71724 0.27412 0.29646
 H31 H 0.83803 0.24726 0.10302
 H32 H 0.78134 0.29445 0.24885
 H33 H 0.75993 0.19863 0.21155
 H34 H 0.74435 0.19981 0.31014
 H35 H 0.66214 0.24858 0.41131
 H36 H 0.72161 0.29438 0.26838
 C37 C 0.67443 0.74823 0.65113
 C38 C 0.69270 0.72077 0.66411
 C39 C 0.72182 0.72127 0.70587
 C40 C 0.73092 0.74820 0.73903
 C41 C 0.71045 0.77500 0.72797
 C42 C 0.68300 0.77559 0.68275
 C43 C 0.76120 0.74815 0.78555
 C44 C 0.78016 0.77547 0.80040
 C45 C 0.80781 0.77587 0.84566
 C46 C 0.81815 0.74767 0.87236
 C47 C 0.80090 0.72005 0.85636
 C48 C 0.77160 0.72068 0.81512
 H49 H 0.65291 0.74798 0.61713
 H50 H 0.73719 0.70037 0.71200
 H51 H 0.71508 0.79541 0.75550
 H52 H 0.77258 0.79666 0.77806
 H53 H 0.84156 0.74671 0.90253
 H54 H 0.75713 0.69945 0.80649
 C55 C 0.31816 0.74734 0.63144
 C56 C 0.31064 0.77480 0.66348
 C57 C 0.28413 0.77423 0.71048
 C58 C 0.26331 0.74760 0.72246
 C59 C 0.27152 0.72057 0.68920
 C60 C 0.29999 0.71989 0.64592
 C61 C 0.23334 0.74809 0.76966
 C62 C 0.22232 0.72099 0.80040
 C63 C 0.19320 0.72091 0.84306
 C64 C 0.17683 0.74930 0.85767
 C65 C 0.18772 0.77662 0.82862
 C66 C 0.21521 0.77569 0.78375
 H67 H 0.33891 0.74694 0.59606
 H68 H 0.28032 0.79451 0.73868
 H69 H 0.25600 0.69976 0.69659
 H70 H 0.23732 0.70002 0.79289
 H71 H 0.15363 0.75022 0.88839
 H72 H 0.22229 0.79673 0.75994
 O73 O 1.03377 -0.03278 0.00479
 O74 O 0.96499 0.02465 0.04851
 O75 O 0.96411 -0.03253 0.01206
 O76 O 1.03590 0.02387 0.04354
 O77 O 1.03300 0.04032 -0.05299
 O78 O 0.96145 -0.01735 -0.08534
 O79 O 0.96211 0.04009 -0.04866
 O80 O 1.03146 -0.01672 -0.09206
 Cu81 Cu 0.99993 -0.00557 0.03704
 Cu82 Cu 0.99673 0.01334 -0.07940
 C83 C 1.04390 -0.03494 -0.05139
 C84 C 0.95167 0.04216 0.00731
 C85 C 0.95111 -0.03524 -0.04214
 C86 C 1.04682 0.04175 0.00093
 O87 O 0.53127 0.46484 0.50558
 O88 O 0.46282 0.52247 0.54598
 O89 O 0.46223 0.46688 0.50213
 O90 O 0.53368 0.52122 0.54962
 O91 O 0.53529 0.54043 0.45513
 O92 O 0.46564 0.48443 0.40639
 O93 O 0.46449 0.54064 0.45064
 O94 O 0.53576 0.48417 0.41115
 Cu95 Cu 0.49744 0.49230 0.53562
 Cu96 Cu 0.50059 0.51445 0.42138
 C97 C 0.54438 0.46410 0.45120
 C98 C 0.45155 0.54121 0.50531
 C99 C 0.45252 0.46568 0.44570
 C100 C 0.54641 0.54041 0.51082
 O101 O 0.03522 0.48295 0.08630
 O102 O -0.03555 0.53919 0.04493
 O103 O -0.03519 0.48285 0.08706
 O104 O 0.03509 0.53961 0.04432
 O105 O 0.03542 0.52145 -0.05121
 O106 O -0.03460 0.46492 -0.00892
 O107 O -0.03564 0.52132 -0.05080
 O108 O 0.03405 0.46491 -0.00957
 Cu109 Cu -0.00003 0.51309 0.07519
 Cu110 Cu -0.00018 0.49173 -0.04008
 C111 C 0.04553 0.46361 0.04576
 C112 C -0.04763 0.53989 -0.01018
 C113 C -0.04590 0.46360 0.04662
 C114 C 0.04712 0.54033 -0.01088
 O115 O 0.46407 1.04102 0.54186
 O116 O 0.53215 0.98440 0.59240
 O117 O 0.53457 1.04064 0.54939
 O118 O 0.46202 0.98455 0.58448
 O119 O 0.46626 0.96624 0.48909
 O120 O 0.53818 1.02223 0.45426
 O121 O 0.53470 0.96596 0.49689
 O122 O 0.46707 1.02265 0.44663
 Cu123 Cu 0.49782 1.01465 0.57647
 Cu124 Cu 0.50191 0.99286 0.46175
 C125 C 0.45402 1.04159 0.48558
 C126 C 0.54395 0.96488 0.55349
 C127 C 0.54876 1.04101 0.49568
 C128 C 0.45292 0.96507 0.54330
 C129 C 1.15013 0.13728 0.06744
 C130 C 1.15012 0.16408 0.03051
 C131 C 1.16894 0.19047 0.05022
 C132 C 1.18773 0.19108 0.10726
 C133 C 1.19036 0.16324 0.14048
 C134 C 1.17186 0.13687 0.12102
 C135 C 1.12597 0.11099 0.04892
 C136 C 1.12084 0.08481 0.08634
 C137 C 1.09576 0.06216 0.06977
 C138 C 1.07537 0.06473 0.01516
 C139 C 1.08119 0.09015 -0.02364
 C140 C 1.10577 0.11348 -0.00665
 C141 C 1.13041 0.16473 -0.02499
 C142 C 1.10902 0.13985 -0.04349
 H143 H 1.13088 0.18507 -0.05396
 H144 H 1.09375 0.14175 -0.08620
 H145 H 1.16857 0.21059 0.02074
 H146 H 1.20427 0.16208 0.18453
 H147 H 1.09196 0.04270 0.10043
 H148 H 1.06539 0.09250 -0.06572
 H149 H 1.17404 0.11671 0.14980
 H150 H 1.13508 0.08177 0.12951
 C151 C 0.64282 0.63741 0.59673
 C152 C 0.64829 0.66259 0.55620
 C153 C 0.66644 0.68912 0.57714
 C154 C 0.67904 0.69116 0.63840
 C155 C 0.67522 0.66555 0.67738
 C156 C 0.65751 0.63901 0.65693
 C157 C 0.62039 0.61072 0.57447
 C158 C 0.61126 0.58553 0.61257
 C159 C 0.58804 0.56240 0.59124
 C160 C 0.57351 0.56354 0.53123
 C161 C 0.58352 0.58794 0.49210
 C162 C 0.60640 0.61159 0.51341
 C163 C 0.63463 0.66157 0.49568
 C164 C 0.61430 0.63656 0.47466
 H165 H 0.63912 0.68070 0.46440
 H166 H 0.60378 0.63717 0.42779
 H167 H 0.66985 0.70855 0.54622
 H168 H 0.68449 0.66652 0.72497
 H169 H 0.58095 0.54379 0.62235
 H170 H 0.57244 0.58916 0.44565
 H171 H 0.65480 0.62040 0.68958
 H172 H 0.62102 0.58354 0.65946
 C173 C -0.13142 0.35845 0.12351
 C174 C -0.11540 0.32933 0.11378
 C175 C -0.13341 0.30255 0.13284
 C176 C -0.16879 0.30374 0.15727
 C177 C -0.18517 0.33271 0.16469
 C178 C -0.16663 0.35971 0.14882
 C179 C -0.11056 0.38653 0.10433
 C180 C -0.12128 0.41673 0.11988
 C181 C -0.10038 0.44207 0.10127
 C182 C -0.06925 0.43775 0.06506
 C183 C -0.05843 0.40793 0.04943
 C184 C -0.07794 0.38238 0.07069
 C185 C -0.08199 0.32693 0.08318
 C186 C -0.06422 0.35283 0.06038
 H187 H -0.06991 0.30458 0.07509
 H188 H -0.03888 0.34973 0.03561
 H189 H -0.11968 0.28071 0.12786
 H190 H -0.21271 0.33464 0.18164
 H191 H -0.10864 0.46502 0.11466
 H192 H -0.03380 0.40460 0.02280
 H193 H -0.18065 0.38126 0.15490
 H194 H -0.14512 0.42111 0.14761
 C195 C 0.36748 0.85902 0.61536
 C196 C 0.38369 0.83004 0.60486
 C197 C 0.36597 0.80304 0.62365
 C198 C 0.33061 0.80390 0.64830
 C199 C 0.31398 0.83278 0.65597
 C200 C 0.33228 0.85995 0.64065
 C201 C 0.38809 0.88734 0.59689
 C202 C 0.37740 0.91733 0.61400
 C203 C 0.39823 0.94290 0.59647
 C204 C 0.42921 0.93906 0.55964
 C205 C 0.43985 0.90942 0.54213
 C206 C 0.42053 0.88360 0.56260
 C207 C 0.41696 0.82803 0.57370
 C208 C 0.43437 0.85419 0.55117
 H209 H 0.42919 0.80580 0.56488
 H210 H 0.45959 0.85139 0.52590
 H211 H 0.37994 0.78135 0.61823
 H212 H 0.28637 0.83454 0.67269
 H213 H 0.39009 0.96566 0.61136
 H214 H 0.46432 0.90638 0.51492
 H215 H 0.31806 0.88139 0.64701
 H216 H 0.35372 0.92135 0.64237
 C217 C -0.14636 0.63667 -0.08535
 C218 C -0.15216 0.66085 -0.04246
 C219 C -0.17117 0.68730 -0.06057
 C220 C -0.18423 0.69032 -0.12136
 C221 C -0.17993 0.66571 -0.16283
 C222 C -0.16141 0.63921 -0.14515
 C223 C -0.12319 0.61007 -0.06592
 C224 C -0.11401 0.58579 -0.10630
 C225 C -0.09021 0.56272 -0.08751
 C226 C -0.07510 0.56304 -0.02788
 C227 C -0.08511 0.58650 0.01350
 C228 C -0.10867 0.61007 -0.00519
 C229 C -0.13798 0.65895 0.01761
 C230 C -0.11680 0.63406 0.03589
 H231 H -0.14270 0.67731 0.05066
 H232 H -0.10589 0.63398 0.08252
 H233 H -0.17491 0.70596 -0.02782
 H234 H -0.18952 0.66747 -0.21012
 H235 H -0.08318 0.54482 -0.12032
 H236 H -0.07363 0.58703 0.05974
 H237 H -0.15839 0.62141 -0.17959
 H238 H -0.12424 0.58444 -0.15301
 C239 C 0.35898 1.13884 0.39907
 C240 C 0.35768 1.16578 0.43574
 C241 C 0.33977 1.19204 0.41389
 C242 C 0.32256 1.19226 0.35549
 C243 C 0.32162 1.16450 0.32160
 C244 C 0.33966 1.13832 0.34281
 C245 C 0.38145 1.11234 0.42143
 C246 C 0.38784 1.08581 0.38543
 C247 C 0.41084 1.06264 0.40679
 C248 C 0.42772 1.06510 0.46484
 C249 C 0.42080 1.09106 0.50169
 C250 C 0.39846 1.11482 0.48006
 C251 C 0.37469 1.16657 0.49375
 C252 C 0.39424 1.14150 0.51576
 H253 H 0.37322 1.18704 0.52236
 H254 H 0.40721 1.14341 0.56068
 H255 H 0.33901 1.21226 0.44328
 H256 H 0.30907 1.16325 0.27635
 H257 H 0.41573 1.04285 0.37740
 H258 H 0.43403 1.09341 0.54633
 H259 H 0.33873 1.11810 0.31382
 H260 H 0.37613 1.08284 0.34003
 C261 C 1.13248 -0.13883 -0.12600
 C262 C 1.14298 -0.15951 -0.07872
 C263 C 1.16145 -0.18668 -0.09387
 C264 C 1.16943 -0.19396 -0.15580
 C265 C 1.15930 -0.17334 -0.20255
 C266 C 1.14113 -0.14613 -0.18799
 C267 C 1.11175 -0.11054 -0.10792
 C268 C 1.09980 -0.08861 -0.15132
 C269 C 1.07879 -0.06360 -0.13255
 C270 C 1.06922 -0.05967 -0.07007
 C271 C 1.08216 -0.08074 -0.02616
 C272 C 1.10316 -0.10605 -0.04455
 C273 C 1.13451 -0.15324 -0.01668
 C274 C 1.11493 -0.12715 0.00001
 H275 H 1.14268 -0.16902 0.01952
 H276 H 1.10855 -0.12362 0.04857
 H277 H 1.16957 -0.20229 -0.05732
 H278 H 1.16473 -0.17858 -0.25077
 H279 H 1.06935 -0.04764 -0.16744
 H280 H 1.07512 -0.07792 0.02233
 H281 H 1.13369 -0.13142 -0.22606
 H282 H 1.10587 -0.09052 -0.20007
 C283 C 0.63171 0.35865 0.38404
 C284 C 0.61496 0.32952 0.39087
 C285 C 0.63386 0.30268 0.37524
 C286 C 0.67038 0.30389 0.35650
 C287 C 0.68728 0.33283 0.35156
 C288 C 0.66818 0.35985 0.36454
 C289 C 0.61009 0.38678 0.39985
 C290 C 0.62235 0.41702 0.38793
 C291 C 0.60096 0.44241 0.40396
 C292 C 0.56754 0.43809 0.43363
 C293 C 0.55492 0.40824 0.44489
 C294 C 0.57535 0.38267 0.42673
 C295 C 0.57976 0.32718 0.41492
 C296 C 0.56075 0.35314 0.43396
 H297 H 0.56705 0.30485 0.42067
 H298 H 0.53390 0.35007 0.45366
 H299 H 0.61990 0.28078 0.37811
 H300 H 0.71560 0.33467 0.33866
 H301 H 0.61071 0.46541 0.39405
 H302 H 0.52848 0.40497 0.46614
 H303 H 0.68266 0.38137 0.36059
 H304 H 0.64800 0.42144 0.36543
 C305 C 0.86180 -0.14166 -0.09845
 C306 C 0.84837 -0.14462 -0.15952
 C307 C 0.82969 -0.17146 -0.17753
 C308 C 0.82525 -0.19634 -0.13615
 C309 C 0.83904 -0.19301 -0.07558
 C310 C 0.85678 -0.16623 -0.05699
 C311 C 0.88219 -0.11301 -0.08130
 C312 C 0.89524 -0.10745 -0.02099
 C313 C 0.91636 -0.08158 -0.00825
 C314 C 0.92503 -0.06043 -0.05507
 C315 C 0.91056 -0.06488 -0.11464
 C316 C 0.88911 -0.09089 -0.12794
 C317 C 0.85470 -0.12121 -0.20287
 C318 C 0.87502 -0.09512 -0.18765
 H319 H 0.84453 -0.12341 -0.24978
 H320 H 0.87993 -0.07807 -0.22331
 H321 H 0.82076 -0.17346 -0.22516
 H322 H 0.83520 -0.21077 -0.04107
 H323 H 0.92672 -0.07862 0.03835
 H324 H 0.91667 -0.04852 -0.15109
 H325 H 0.86669 -0.16550 -0.01003
 H326 H 0.88986 -0.12290 0.01697
 C327 C 0.36604 0.36126 0.36529
 C328 C 0.35533 0.34012 0.41176
 C329 C 0.33778 0.31261 0.39542
 C330 C 0.33085 0.30546 0.33311
 C331 C 0.34107 0.32656 0.28713
 C332 C 0.35841 0.35410 0.30285
 C333 C 0.38591 0.38989 0.38471
 C334 C 0.39823 0.41224 0.34225
 C335 C 0.41865 0.43747 0.36239
 C336 C 0.42718 0.44118 0.42532
 C337 C 0.41369 0.41975 0.46822
 C338 C 0.39338 0.39422 0.44849
 C339 C 0.36266 0.34627 0.47423
 C340 C 0.38135 0.37269 0.49218
 H341 H 0.35430 0.33014 0.50980
 H342 H 0.38689 0.37611 0.54105
 H343 H 0.32951 0.29664 0.43136
 H344 H 0.33634 0.32146 0.23865
 H345 H 0.42860 0.45368 0.32825
 H346 H 0.41994 0.42237 0.51705
 H347 H 0.36599 0.36920 0.26539
 H348 H 0.39301 0.41043 0.29322
 C349 C 0.14317 0.63884 -0.09017
 C350 C 0.14324 0.66579 -0.05345
 C351 C 0.16106 0.69241 -0.07439
 C352 C 0.17926 0.69299 -0.13202
 C353 C 0.18125 0.66526 -0.16590
 C354 C 0.16345 0.63873 -0.14550
 C355 C 0.12077 0.61192 -0.06909
 C356 C 0.11577 0.58525 -0.10540
 C357 C 0.09256 0.56176 -0.08570
 C358 C 0.07405 0.56401 -0.02902
 C359 C 0.07973 0.59001 0.00841
 C360 C 0.10232 0.61410 -0.01162
 C361 C 0.12500 0.66623 0.00358
 C362 C 0.10533 0.64083 0.02436
 H363 H 0.12551 0.68671 0.03227
 H364 H 0.09130 0.64250 0.06843
 H365 H 0.16090 0.71262 -0.04497
 H366 H 0.19444 0.66423 -0.21068
 H367 H 0.08870 0.54193 -0.11545
 H368 H 0.06528 0.59216 0.05202
 H369 H 0.16528 0.61858 -0.17453
 H370 H 0.12870 0.58242 -0.14990
 C371 C 0.65024 1.13749 0.42668
 C372 C 0.65054 1.16408 0.46442
 C373 C 0.66906 1.19064 0.44489
 C374 C 0.68732 1.19161 0.38730
 C375 C 0.68942 1.16403 0.35288
 C376 C 0.67120 1.13751 0.37213
 C377 C 0.62660 1.11092 0.44552
 C378 C 0.62133 1.08479 0.40781
 C379 C 0.59675 1.06183 0.42498
 C380 C 0.57703 1.06408 0.48046
 C381 C 0.58304 1.08947 0.51946
 C382 C 0.60711 1.11304 0.50197
 C383 C 0.63151 1.16434 0.52070
 C384 C 0.61054 1.13925 0.53935
 H385 H 0.63220 1.18452 0.55024
 H386 H 0.59579 1.14085 0.58274
 H387 H 0.66899 1.21057 0.47505
 H388 H 0.70276 1.16316 0.30821
 H389 H 0.59276 1.04245 0.39411
 H390 H 0.56777 1.09159 0.56225
 H391 H 0.67301 1.11757 0.34251
 H392 H 0.63509 1.08200 0.36402
 C393 C 0.13135 0.35787 0.11517
 C394 C 0.11471 0.32880 0.10670
 C395 C 0.13328 0.30187 0.12256
 C396 C 0.16953 0.30295 0.14265
 C397 C 0.18635 0.33187 0.14906
 C398 C 0.16746 0.35897 0.13624
 C399 C 0.11012 0.38610 0.09892
 C400 C 0.12197 0.41625 0.11292
 C401 C 0.10097 0.44174 0.09627
 C402 C 0.06850 0.43760 0.06372
 C403 C 0.05638 0.40782 0.05022
 C404 C 0.07618 0.38215 0.06934
 C405 C 0.08008 0.32662 0.08044
 C406 C 0.06168 0.35268 0.06050
 H407 H 0.06746 0.30434 0.07341
 H408 H 0.03536 0.34975 0.03888
 H409 H 0.11933 0.28001 0.11845
 H410 H 0.21451 0.33367 0.16282
 H411 H 0.11029 0.46468 0.10797
 H412 H 0.03076 0.40466 0.02646
 H413 H 0.18188 0.38046 0.14127
 H414 H 0.14693 0.42050 0.13764
 C415 C 0.62639 0.85953 0.63580
 C416 C 0.60867 0.83068 0.63173
 C417 C 0.62660 0.80382 0.65008
 C418 C 0.66311 0.80464 0.66879
 C419 C 0.68088 0.83329 0.67139
 C420 C 0.66274 0.86038 0.65577
 C421 C 0.60600 0.88770 0.61626
 C422 C 0.61934 0.91792 0.62474
 C423 C 0.59917 0.94331 0.60488
 C424 C 0.56595 0.93894 0.57480
 C425 C 0.55228 0.90916 0.56692
 C426 C 0.57141 0.88369 0.58893
 C427 C 0.57356 0.82857 0.60734
 C428 C 0.55571 0.85440 0.58493
 H429 H 0.56009 0.80644 0.60380
 H430 H 0.52894 0.85147 0.56498
 H431 H 0.61202 0.78217 0.64885
 H432 H 0.70923 0.83480 0.68408
 H433 H 0.60968 0.96632 0.61220
 H434 H 0.52609 0.90594 0.54510
 H435 H 0.67792 0.88162 0.65777
 H436 H 0.64491 0.92236 0.64739
 C437 C 0.85228 0.13909 0.08113
 C438 C 0.84290 0.14056 0.14475
 C439 C 0.82370 0.16596 0.16794
 C440 C 0.81441 0.19050 0.12897
 C441 C 0.82219 0.18835 0.06548
 C442 C 0.84067 0.16294 0.04167
 C443 C 0.87575 0.11303 0.05941
 C444 C 0.88780 0.11009 -0.00235
 C445 C 0.91176 0.08671 -0.01926
 C446 C 0.92433 0.06557 0.02477
 C447 C 0.91147 0.06763 0.08593
 C448 C 0.88749 0.09114 0.10353
 C449 C 0.85416 0.11743 0.18544
 C450 C 0.87599 0.09328 0.16529
 H451 H 0.84676 0.11843 0.23405
 H452 H 0.88468 0.07636 0.19896
 H453 H 0.81810 0.16758 0.21721
 H454 H 0.81488 0.20687 0.03443
 H455 H 0.92099 0.08559 -0.06690
 H456 H 0.92074 0.05130 0.12034
 H457 H 0.84653 0.16295 -0.00730
 H458 H 0.87959 0.12586 -0.03816
 C459 C 0.35109 0.63672 0.58178
 C460 C 0.34601 0.66159 0.54047
 C461 C 0.32697 0.68787 0.55994
 C462 C 0.31349 0.69013 0.62076
 C463 C 0.31692 0.66473 0.66034
 C464 C 0.33522 0.63835 0.64116
 C465 C 0.37460 0.61044 0.56147
 C466 C 0.38305 0.58554 0.60052
 C467 C 0.40732 0.56289 0.58143
 C468 C 0.42372 0.56419 0.52275
 C469 C 0.41443 0.58824 0.48246
 C470 C 0.39032 0.61144 0.50155
 C471 C 0.36117 0.66061 0.48090
 C472 C 0.38278 0.63606 0.46183
 H473 H 0.35701 0.67950 0.44900
 H474 H 0.39454 0.63675 0.41576
 H475 H 0.32382 0.70705 0.52838
 H476 H 0.30707 0.66580 0.70762
 H477 H 0.41368 0.54448 0.61334
 H478 H 0.42686 0.58951 0.43695
 H479 H 0.33763 0.61999 0.67439
 H480 H 0.37186 0.58337 0.64649
   
