data_POSCAR
  _audit_creation_date              2014-09-24
  _audit_creation_method            'ToBaCCo'
  _symmetry_space_group_name_H-M    'P1'
  _symmetry_Int_Tables_number       1
  _symmetry_cell_setting            triclinic
  loop_
  _symmetry_equiv_pos_as_xyz
 x,y,z
_cell_length_a 47.7597
_cell_length_b 44.1878
_cell_length_c 40.5550
_cell_angle_alpha 89.927700
_cell_angle_beta 89.997400
_cell_angle_gamma 89.930900
loop_
  _atom_site_label
  _atom_site_type_symbol
  _atom_site_fract_x
  _atom_site_fract_y
  _atom_site_fract_z
N1 N 0.19741 1.25512 0.16190
 N2 N 0.17890 1.25501 0.18593
 C3 C 0.15919 1.27608 0.17977
 C4 C 0.16595 1.29010 0.15046
 C5 C 0.19017 1.27635 0.13960
 H6 H 0.14082 1.28005 0.19479
 H7 H 0.20107 1.28061 0.11667
 Cu8 Cu 0.18094 1.22578 0.22157
 Cu9 Cu 0.22816 1.22610 0.16007
 Cu10 Cu 0.22629 1.16775 0.21714
 N11 N 0.17676 1.19019 0.24917
 N12 N 0.19460 1.16753 0.24744
 C13 C 0.18606 1.14522 0.26774
 C14 C 0.16169 1.15462 0.28283
 C15 C 0.15621 1.18312 0.27056
 H16 H 0.19624 1.12347 0.27041
 H17 H 0.13820 1.19719 0.27586
 N18 N 0.25648 1.17218 0.18435
 N19 N 0.25719 1.19440 0.16253
 C20 C 0.27929 1.19021 0.14236
 C21 C 0.29299 1.16426 0.15214
 C22 C 0.27810 1.15329 0.17865
 H23 H 0.28444 1.20427 0.12138
 H24 H 0.28213 1.13249 0.19191
 H25 H 0.20451 1.19289 0.18258
 H26 H 0.22973 1.21395 0.20933
 N27 N 0.80228 0.74520 0.16249
 N28 N 0.82079 0.74530 0.18651
 C29 C 0.84051 0.72424 0.18037
 C30 C 0.83380 0.71024 0.15107
 C31 C 0.80955 0.72399 0.14024
 H32 H 0.85885 0.72023 0.19540
 H33 H 0.79865 0.71969 0.11734
 Cu34 Cu 0.81869 0.77447 0.22212
 Cu35 Cu 0.77150 0.77418 0.16061
 Cu36 Cu 0.77322 0.83240 0.21771
 N37 N 0.82278 0.81000 0.24974
 N38 N 0.80489 0.83261 0.24804
 C39 C 0.81336 0.85488 0.26836
 C40 C 0.83776 0.84552 0.28344
 C41 C 0.84332 0.81707 0.27114
 H42 H 0.80314 0.87659 0.27104
 H43 H 0.86137 0.80305 0.27642
 N44 N 0.74306 0.82798 0.18488
 N45 N 0.74241 0.80581 0.16305
 C46 C 0.72031 0.81000 0.14287
 C47 C 0.70654 0.83588 0.15266
 C48 C 0.72139 0.84682 0.17919
 H49 H 0.71521 0.79598 0.12189
 H50 H 0.71731 0.86757 0.19246
 H51 H 0.79506 0.80744 0.18314
 H52 H 0.76988 0.78623 0.20987
 N53 N 0.80235 1.25476 -0.16217
 N54 N 0.82087 1.25464 -0.18618
 C55 C 0.84060 1.27562 -0.17997
 C56 C 0.83389 1.28957 -0.15063
 C57 C 0.80962 1.27589 -0.13986
 H58 H 0.85895 1.27960 -0.19499
 H59 H 0.79871 1.28017 -0.11696
 Cu60 Cu 0.81877 1.22558 -0.22188
 Cu61 Cu 0.77154 1.22589 -0.16040
 Cu62 Cu 0.77327 1.16779 -0.21765
 N63 N 0.82288 1.19009 -0.24956
 N64 N 0.80497 1.16753 -0.24793
 C65 C 0.81348 1.14526 -0.26826
 C66 C 0.83790 1.15457 -0.28328
 C67 C 0.84345 1.18298 -0.27093
 H68 H 0.80324 1.12358 -0.27100
 H69 H 0.86151 1.19696 -0.27616
 N70 N 0.74307 1.17224 -0.18485
 N71 N 0.74242 1.19436 -0.16295
 C72 C 0.72033 1.19017 -0.14278
 C73 C 0.70656 1.16435 -0.15264
 C74 C 0.72141 1.15344 -0.17920
 H75 H 0.71524 1.20414 -0.12173
 H76 H 0.71734 1.13272 -0.19251
 H77 H 0.79510 1.19262 -0.18298
 H78 H 0.76995 1.21396 -0.20968
 N79 N 0.19797 0.74522 -0.16214
 N80 N 0.17946 0.74531 -0.18618
 C81 C 0.15980 0.72425 -0.17997
 C82 C 0.16651 0.71028 -0.15061
 C83 C 0.19073 0.72404 -0.13981
 H84 H 0.14147 0.72021 -0.19501
 H85 H 0.20163 0.71976 -0.11689
 Cu86 Cu 0.18151 0.77444 -0.22190
 Cu87 Cu 0.22871 0.77418 -0.16038
 Cu88 Cu 0.22690 0.83234 -0.21770
 N89 N 0.17736 0.80995 -0.24963
 N90 N 0.19522 0.83255 -0.24801
 C91 C 0.18668 0.85482 -0.26838
 C92 C 0.16229 0.84548 -0.28340
 C93 C 0.15678 0.81703 -0.27101
 H94 H 0.19686 0.87654 -0.27112
 H95 H 0.13875 0.80303 -0.27623
 N96 N 0.25708 0.82792 -0.18487
 N97 N 0.25775 0.80579 -0.16293
 C98 C 0.27980 0.81002 -0.14272
 C99 C 0.29352 0.83589 -0.15260
 C100 C 0.27868 0.84679 -0.17920
 H101 H 0.28490 0.79605 -0.12164
 H102 H 0.28271 0.86753 -0.19254
 H103 H 0.20510 0.80740 -0.18306
 H104 H 0.23031 0.78615 -0.20971
 C105 C 0.46974 0.97754 -0.01717
 C106 C 0.48446 1.00020 -0.00024
 C107 C 0.46969 1.02286 0.01668
 C108 C 0.44037 1.02266 0.01694
 C109 C 0.42580 1.00020 -0.00025
 C110 C 0.44042 0.97774 -0.01744
 C111 C 0.51527 1.00018 -0.00020
 C112 C 0.53003 1.02283 -0.01718
 C113 C 0.55935 1.02262 -0.01736
 C114 C 0.57394 1.00016 -0.00008
 C115 C 0.55934 0.97770 0.01713
 C116 C 0.53002 0.97751 0.01682
 H117 H 0.48109 0.96012 -0.03044
 H118 H 0.48100 1.04028 0.02995
 H119 H 0.51871 1.04024 -0.03053
 H120 H 0.51868 0.96011 0.03013
 H121 H 0.40308 1.00020 -0.00025
 H122 H 0.59665 1.00015 -0.00004
 C123 C -0.02130 0.46706 0.98462
 C124 C 0.00032 0.48297 1.00036
 C125 C 0.02194 0.46696 1.01610
 C126 C 0.02176 0.43527 1.01641
 C127 C 0.00031 0.41952 1.00036
 C128 C -0.02113 0.43537 0.98431
 C129 C 0.00032 0.51630 1.00038
 C130 C -0.02130 0.53227 1.01612
 C131 C -0.02111 0.56396 1.01646
 C132 C 0.00034 0.57975 1.00042
 C133 C 0.02177 0.56395 0.98435
 C134 C 0.02195 0.53226 0.98465
 H135 H -0.03793 0.47934 0.97222
 H136 H 0.03856 0.47916 1.02851
 H137 H -0.03793 0.52003 1.02852
 H138 H 0.03857 0.52001 0.97223
 H139 H 0.00030 0.39497 1.00037
 H140 H 0.00034 0.60430 1.00045
 C141 C 0.97998 -0.01710 0.46440
 C142 C 0.99985 0.00002 0.48168
 C143 C 1.01969 0.01713 0.46430
 C144 C 1.01954 0.01731 0.42977
 C145 C 0.99981 0.00000 0.41257
 C146 C 0.98009 -0.01728 0.42986
 C147 C 0.99988 0.00002 0.51793
 C148 C 1.01983 -0.01703 0.53527
 C149 C 1.01975 -0.01719 0.56980
 C150 C 0.99997 0.00006 0.58704
 C151 C 0.98013 0.01728 0.56980
 C152 C 0.97996 0.01708 0.53527
 H153 H 0.96471 -0.03043 0.47781
 H154 H 1.03498 0.03048 0.47765
 H155 H 1.03516 -0.03034 0.52188
 H156 H 0.96460 0.03037 0.52189
 H157 H 0.99979 0.00000 0.38583
 H158 H 1.00001 0.00008 0.61379
 C159 C 0.15010 0.31060 1.13379
 C160 C 0.13562 0.32833 1.11892
 C161 C 0.11776 0.34890 1.10113
 C162 C 0.11830 0.34947 1.06659
 C163 C 0.09981 0.36819 1.04923
 C164 C 0.08072 0.38644 1.06636
 C165 C 0.08046 0.38619 1.10091
 C166 C 0.09894 0.36746 1.11825
 C167 C 0.06055 0.40431 1.04854
 C168 C 0.04315 0.41873 1.03377
 H169 H 0.13269 0.33511 1.05310
 H170 H 0.10010 0.36810 1.02252
 H171 H 0.06570 0.40010 1.11439
 H172 H 0.09826 0.36710 1.14496
 C173 C -0.14949 0.68851 1.13356
 C174 C -0.13500 0.67077 1.11877
 C175 C -0.11714 0.65020 1.10103
 C176 C -0.11777 0.64955 1.06649
 C177 C -0.09929 0.63083 1.04918
 C178 C -0.08010 0.61269 1.06633
 C179 C -0.07975 0.61302 1.10088
 C180 C -0.09823 0.63174 1.11819
 C181 C -0.05993 0.59483 1.04855
 C182 C -0.04252 0.58044 1.03381
 H183 H -0.13222 0.66383 1.05297
 H184 H -0.09965 0.63085 1.02246
 H185 H -0.06490 0.59920 1.11438
 H186 H -0.09748 0.63217 1.14489
 C187 C -0.14940 0.31119 0.86695
 C188 C -0.13491 0.32885 0.88180
 C189 C -0.11706 0.34934 0.89959
 C190 C -0.11773 0.34998 0.93413
 C191 C -0.09927 0.36866 0.95148
 C192 C -0.08007 0.38677 0.93437
 C193 C -0.07967 0.38643 0.89982
 C194 C -0.09812 0.36776 0.88247
 C195 C -0.05993 0.40458 0.95219
 C196 C -0.04253 0.41893 0.96695
 H197 H -0.13220 0.33573 0.94762
 H198 H -0.09967 0.36863 0.97820
 H199 H -0.06481 0.40023 0.88635
 H200 H -0.09733 0.36734 0.85578
 C201 C 0.14986 0.68856 0.86697
 C202 C 0.13542 0.67082 0.88183
 C203 C 0.11762 0.65025 0.89963
 C204 C 0.09895 0.63156 0.88250
 C205 C 0.08052 0.61281 0.89985
 C206 C 0.08069 0.61268 0.93440
 C207 C 0.09963 0.63105 0.95153
 C208 C 0.11806 0.64979 0.93418
 C209 C 0.06055 0.59482 0.95221
 C210 C 0.04316 0.58043 0.96698
 H211 H 0.09834 0.63183 0.85580
 H212 H 0.06587 0.59881 0.88637
 H213 H 0.09985 0.63122 0.97825
 H214 H 0.13233 0.66425 0.94767
 C215 C 1.14494 0.13793 0.30292
 C216 C 1.12986 0.12298 0.32033
 C217 C 1.11156 0.10500 0.34061
 C218 C 1.08677 0.11755 0.35303
 C219 C 1.06850 0.09980 0.37181
 C220 C 1.07495 0.06942 0.37823
 C221 C 1.09985 0.05692 0.36603
 C222 C 1.11812 0.07468 0.34725
 C223 C 1.05572 0.05095 0.39671
 C224 C 1.03937 0.03555 0.41191
 H225 H 1.08145 0.14095 0.34797
 H226 H 1.04928 0.10967 0.38107
 H227 H 1.10502 0.03344 0.37080
 H228 H 1.13720 0.06472 0.33769
 C229 C 1.14551 -0.13781 0.69652
 C230 C 1.13040 -0.12284 0.67913
 C231 C 1.11207 -0.10483 0.65887
 C232 C 1.11841 -0.07441 0.65256
 C233 C 1.10010 -0.05664 0.63380
 C234 C 1.07538 -0.06922 0.62127
 C235 C 1.06915 -0.09970 0.62736
 C236 C 1.08745 -0.11747 0.64613
 C237 C 1.05610 -0.05076 0.60280
 C238 C 1.03968 -0.03538 0.58762
 H239 H 1.13734 -0.06440 0.66238
 H240 H 1.10509 -0.03309 0.62929
 H241 H 1.05007 -0.10964 0.61785
 H242 H 1.08231 -0.14093 0.65093
 C243 C 0.85449 -0.13779 0.30351
 C244 C 0.86956 -0.12284 0.32089
 C245 C 0.88785 -0.10486 0.34112
 C246 C 0.88161 -0.07436 0.34710
 C247 C 0.89991 -0.05662 0.36580
 C248 C 0.92453 -0.06930 0.37858
 C249 C 0.93066 -0.09985 0.37282
 C250 C 0.91236 -0.11760 0.35413
 C251 C 0.94381 -0.05086 0.39697
 C252 C 0.96021 -0.03549 0.41210
 H253 H 0.86275 -0.06426 0.33709
 H254 H 0.89499 -0.03300 0.37005
 H255 H 0.94967 -0.10987 0.38253
 H256 H 0.91744 -0.14113 0.34958
 C257 C 0.85464 0.13784 0.69666
 C258 C 0.86972 0.12286 0.67927
 C259 C 0.88802 0.10486 0.65901
 C260 C 0.88146 0.07457 0.65237
 C261 C 0.89972 0.05681 0.63358
 C262 C 0.92461 0.06927 0.62136
 C263 C 0.93107 0.09962 0.62780
 C264 C 0.91282 0.11737 0.64659
 C265 C 0.94384 0.05082 0.60284
 C266 C 0.96023 0.03546 0.58763
 H267 H 0.86238 0.06465 0.66194
 H268 H 0.89455 0.03335 0.62881
 H269 H 0.95030 0.10946 0.61854
 H270 H 0.91814 0.14073 0.65167
 C271 C 0.31562 1.14935 0.13541
 C272 C 0.33406 1.13612 0.12111
 C273 C 0.35534 1.11944 0.10376
 C274 C 0.35873 1.12339 0.06971
 C275 C 0.37777 1.10537 0.05235
 C276 C 0.39350 1.08334 0.06897
 C277 C 0.39056 1.07985 0.10314
 C278 C 0.37151 1.09786 0.12050
 C279 C 0.41109 1.06290 0.05069
 C280 C 0.42493 1.04498 0.03531
 H281 H 0.34622 1.13989 0.05649
 H282 H 0.37974 1.10812 0.02590
 H283 H 0.40247 1.06275 0.11621
 H284 H 0.36893 1.09449 0.14679
 C285 C 0.68395 1.14942 -0.13589
 C286 C 0.66555 1.13617 -0.12157
 C287 C 0.64432 1.11945 -0.10420
 C288 C 0.62825 1.09784 -0.12091
 C289 C 0.60925 1.07979 -0.10352
 C290 C 0.60624 1.08328 -0.06937
 C291 C 0.62189 1.10532 -0.05278
 C292 C 0.64088 1.12338 -0.07016
 C293 C 0.58865 1.06285 -0.05110
 C294 C 0.57478 1.04494 -0.03573
 H295 H 0.63087 1.09447 -0.14718
 H296 H 0.59742 1.06266 -0.11656
 H297 H 0.61989 1.10805 -0.02634
 H298 H 0.65333 1.13989 -0.05697
 C299 C 0.31609 0.85085 -0.13586
 C300 C 0.33447 0.86413 -0.12157
 C301 C 0.35568 0.88088 -0.10425
 C302 C 0.37154 0.90271 -0.12094
 C303 C 0.39050 0.92078 -0.10358
 C304 C 0.39368 0.91708 -0.06947
 C305 C 0.37825 0.89481 -0.05289
 C306 C 0.35929 0.87674 -0.07025
 C307 C 0.41122 0.93752 -0.05118
 C308 C 0.42503 0.95543 -0.03581
 H309 H 0.36878 0.90623 -0.14718
 H310 H 0.40217 0.93808 -0.11660
 H311 H 0.38039 0.89192 -0.02648
 H312 H 0.34701 0.86005 -0.05707
 C313 C 0.68391 0.85079 0.13591
 C314 C 0.66548 0.86404 0.12158
 C315 C 0.64423 0.88075 0.10418
 C316 C 0.62805 0.90232 0.12088
 C317 C 0.60904 0.92038 0.10347
 C318 C 0.60614 0.91695 0.06930
 C319 C 0.62188 0.89494 0.05272
 C320 C 0.64088 0.87687 0.07013
 C321 C 0.58857 0.93742 0.05098
 C322 C 0.57474 0.95536 0.03556
 H323 H 0.63059 0.90564 0.14717
 H324 H 0.59713 0.93748 0.11650
 H325 H 0.61995 0.89225 0.02626
 H326 H 0.65341 0.86039 0.05694
   
