data_POSCAR
  _audit_creation_date              2014-09-24
  _audit_creation_method            'ToBaCCo'
  _symmetry_space_group_name_H-M    'P1'
  _symmetry_Int_Tables_number       1
  _symmetry_cell_setting            triclinic
  loop_
  _symmetry_equiv_pos_as_xyz
 x,y,z
_cell_length_a 26.3790
_cell_length_b 28.9389
_cell_length_c 32.7119
_cell_angle_alpha 90.064900
_cell_angle_beta 90.157700
_cell_angle_gamma 90.521300
loop_
  _atom_site_label
  _atom_site_type_symbol
  _atom_site_fract_x
  _atom_site_fract_y
  _atom_site_fract_z
B1 B 0.27465 0.22424 0.29046
 B2 B 0.21360 0.21709 0.27724
 B3 B 0.23534 0.26948 0.29024
 B4 B 0.29536 0.27560 0.27273
 B5 B 0.30978 0.22544 0.24773
 B6 B 0.25861 0.18900 0.25117
 B7 B 0.22942 0.26516 0.20836
 B8 B 0.29079 0.27208 0.22149
 B9 B 0.26865 0.21959 0.20824
 B10 B 0.20889 0.21344 0.22601
 B11 B 0.19455 0.26365 0.25079
 B12 B 0.24559 0.30018 0.24776
 B13 B 0.73572 0.77107 0.28741
 B14 B 0.79685 0.77756 0.27458
 B15 B 0.77454 0.72514 0.28673
 B16 B 0.71431 0.72041 0.26897
 B17 B 0.70074 0.77137 0.24467
 B18 B 0.75240 0.80679 0.24867
 B19 B 0.77986 0.73095 0.20471
 B20 B 0.71843 0.72492 0.21777
 B21 B 0.74175 0.77720 0.20529
 B22 B 0.80154 0.78203 0.22343
 B23 B 0.81517 0.73120 0.24737
 B24 B 0.76337 0.69536 0.24350
 B25 B 0.71289 0.24533 -0.28818
 B26 B 0.76877 0.22297 -0.27477
 B27 B 0.76606 0.27899 -0.28674
 B28 B 0.70985 0.29987 -0.27010
 B29 B 0.67910 0.25520 -0.24589
 B30 B 0.71643 0.20749 -0.24899
 B31 B 0.76789 0.27215 -0.20481
 B32 B 0.71193 0.29467 -0.21881
 B33 B 0.71586 0.23871 -0.20606
 B34 B 0.77138 0.21755 -0.22332
 B35 B 0.80194 0.26199 -0.24685
 B36 B 0.76518 0.31011 -0.24385
 B37 B 0.27177 0.77660 -0.29446
 B38 B 0.21226 0.78536 -0.27937
 B39 B 0.22836 0.73181 -0.29327
 B40 B 0.28931 0.72336 -0.27878
 B41 B 0.30915 0.77225 -0.25317
 B42 B 0.26072 0.81071 -0.25353
 B43 B 0.22885 0.73543 -0.21128
 B44 B 0.28850 0.72589 -0.22723
 B45 B 0.27098 0.77863 -0.21214
 B46 B 0.21065 0.78822 -0.22785
 B47 B 0.19135 0.73943 -0.25201
 B48 B 0.23965 0.70040 -0.25153
 B49 B 1.23113 1.26222 0.70947
 B50 B 1.21434 1.20878 0.72455
 B51 B 1.27449 1.21985 0.71067
 B52 B 1.29062 1.27355 0.72657
 B53 B 1.23936 1.29518 0.75134
 B54 B 1.19148 1.25502 0.74954
 B55 B 1.27048 1.21875 0.79307
 B56 B 1.28727 1.27200 0.77821
 B57 B 1.22723 1.26086 0.79192
 B58 B 1.21083 1.20743 0.77582
 B59 B 1.26274 1.18579 0.75155
 B60 B 1.31031 1.22600 0.75308
 B61 B 0.77598 0.72639 0.79122
 B62 B 0.71739 0.71246 0.77493
 B63 B 0.73016 0.76663 0.79039
 B64 B 0.79012 0.78063 0.77568
 B65 B 0.81356 0.73354 0.75040
 B66 B 0.76802 0.69123 0.75047
 B67 B 0.73116 0.76486 0.70800
 B68 B 0.79001 0.77833 0.72406
 B69 B 0.77657 0.72416 0.70888
 B70 B 0.71702 0.71057 0.72341
 B71 B 0.69351 0.75734 0.74872
 B72 B 0.73914 0.79990 0.74885
 B73 B 1.23370 0.72219 0.29387
 B74 B 1.21190 0.77619 0.28911
 B75 B 1.27407 0.76777 0.29606
 B76 B 1.29081 0.71925 0.27143
 B77 B 1.23812 0.69815 0.24750
 B78 B 1.18848 0.73379 0.25874
 B79 B 1.25882 0.78349 0.21577
 B80 B 1.28100 0.72994 0.22157
 B81 B 1.21864 0.73804 0.21373
 B82 B 1.20132 0.78698 0.23867
 B83 B 1.25436 0.80804 0.26227
 B84 B 1.30375 0.77252 0.25125
 B85 B 0.77701 1.26618 0.20170
 B86 B 0.71730 1.28061 0.21222
 B87 B 0.73088 1.22515 0.20285
 B88 B 0.78913 1.21432 0.22225
 B89 B 0.81011 1.26425 0.24541
 B90 B 0.76480 1.30531 0.23883
 B91 B 0.72375 1.23586 0.28434
 B92 B 0.78387 1.22186 0.27327
 B93 B 0.76891 1.27704 0.28324
 B94 B 0.71115 1.28813 0.26331
 B95 B 0.69041 1.23839 0.24094
 B96 B 0.73554 1.19685 0.24726
 O97 O 0.46222 1.06946 0.05737
 O98 O 0.55444 0.93938 0.05797
 O99 O 0.40259 0.94175 0.02457
 O100 O 0.61358 1.03200 0.01345
 O101 O 0.46615 0.93117 0.06305
 O102 O 0.55672 1.05320 0.05680
 O103 O 0.61065 0.94829 0.01260
 O104 O 0.40016 1.02793 0.03076
 C105 C 0.41667 1.05701 0.05639
 C106 C 0.59957 0.93881 0.04881
 C107 C 0.41976 0.93123 0.05880
 C108 C 0.60212 1.04957 0.04754
 O109 O 0.55998 1.08650 -0.01894
 O110 O 0.46101 0.89542 -0.01487
 O111 O 0.41607 1.03700 -0.04732
 O112 O 0.55797 0.95166 -0.06070
 O113 O 0.55314 0.89732 -0.01796
 O114 O 0.46629 1.09015 -0.02048
 O115 O 0.56533 1.03223 -0.06180
 O116 O 0.42955 0.94973 -0.05289
 Co117 Co 0.51110 1.06666 0.01721
 Co118 Co 0.50840 0.92227 0.02014
 Co119 Co 0.42136 0.98909 -0.01022
 Co120 Co 0.58007 0.99109 -0.02190
 O121 O 0.50408 0.99311 0.00131
 C122 C 0.56746 1.07393 -0.05472
 C123 C 0.43805 0.90810 -0.04688
 C124 C 0.43187 1.07796 -0.04528
 C125 C 0.56121 0.91007 -0.05391
 O126 O 0.95993 0.58772 0.52824
 O127 O 1.04712 0.40244 0.53160
 O128 O 0.89737 0.45275 0.52124
 O129 O 1.11018 0.53781 0.52124
 O130 O 0.96103 0.42171 0.54888
 O131 O 1.04570 0.56976 0.54669
 O132 O 1.08739 0.46372 0.54941
 O133 O 0.92042 0.52706 0.54774
 C134 C 0.93196 0.56793 0.55378
 C135 C 1.07683 0.42264 0.55594
 C136 C 0.91517 0.42999 0.54987
 C137 C 1.09183 0.56257 0.54824
 O138 O 1.07192 0.57326 0.46576
 O139 O 0.93502 0.41492 0.46737
 O140 O 0.91376 0.56076 0.47126
 O141 O 1.09319 0.42809 0.47403
 O142 O 1.02120 0.41094 0.45007
 O143 O 0.98575 0.57576 0.44701
 O144 O 1.09347 0.50578 0.44548
 O145 O 0.91560 0.48193 0.44465
 Co146 Co 1.01456 0.56886 0.49707
 Co147 Co 0.99232 0.42035 0.49944
 Co148 Co 0.92165 0.50453 0.49626
 Co149 Co 1.08628 0.48497 0.49748
 O150 O 1.00376 0.49469 0.49759
 C151 C 1.09217 0.54805 0.43956
 C152 C 0.91564 0.43936 0.43999
 C153 C 0.93943 0.57992 0.44435
 C154 C 1.06757 0.40801 0.44752
 O155 O 1.07279 0.47672 0.06747
 O156 O 1.06787 0.52538 -0.07269
 O157 O 1.07284 0.42125 -0.02460
 O158 O 1.06955 0.58156 0.01755
 O159 O 1.04188 0.44715 -0.07991
 O160 O 1.04422 0.55462 0.07453
 O161 O 1.03847 0.58864 -0.05104
 O162 O 1.04567 0.41209 0.04499
 C163 C 1.07825 0.43442 0.06456
 C164 C 1.07258 0.56774 -0.06945
 C165 C 1.07652 0.42632 -0.06194
 C166 C 1.07574 0.57791 0.05483
 O167 O 0.94595 0.52435 0.06844
 O168 O 0.94297 0.47194 -0.06976
 O169 O 0.94781 0.41712 0.02050
 O170 O 0.94190 0.57709 -0.02313
 O171 O 0.96865 0.55042 -0.07940
 O172 O 0.97556 0.44697 0.07578
 O173 O 0.97283 0.58820 0.04504
 O174 O 0.97472 0.40927 -0.04882
 Co175 Co 1.00944 0.50063 0.06432
 Co176 Co 1.00556 0.49884 -0.06825
 Co177 Co 1.01011 0.42350 -0.00204
 Co178 Co 1.00590 0.57536 -0.00290
 O179 O 1.00786 0.49960 -0.00218
 C180 C 0.93969 0.56635 0.06420
 C181 C 0.93880 0.42962 -0.06543
 C182 C 0.94267 0.42361 0.05752
 C183 C 0.93523 0.57112 -0.06009
 O184 O 0.56970 0.97294 0.56843
 O185 O 0.57206 1.03114 0.43150
 O186 O 0.58045 0.92678 0.47356
 O187 O 0.56269 1.08378 0.52311
 O188 O 0.55137 0.95315 0.41799
 O189 O 0.53669 1.04916 0.57693
 O190 O 0.53742 1.09221 0.45317
 O191 O 0.54826 0.90943 0.54074
 C192 C 0.57803 0.93142 0.56315
 C193 C 0.57357 1.07356 0.43526
 C194 C 0.58598 0.93309 0.43658
 C195 C 0.56700 1.07670 0.56022
 O196 O 0.44083 1.01617 0.56672
 O197 O 0.45029 0.97328 0.42567
 O198 O 0.45327 0.91157 0.51144
 O199 O 0.43892 1.07363 0.47561
 O200 O 0.47271 1.05246 0.42025
 O201 O 0.47281 0.93855 0.57020
 O202 O 0.46464 1.08247 0.54576
 O203 O 0.48463 0.91094 0.44371
 Co204 Co 0.50537 0.99455 0.56332
 Co205 Co 0.51124 1.00203 0.43107
 Co206 Co 0.51611 0.92322 0.49264
 Co207 Co 0.50153 1.07440 0.49892
 O208 O 0.50856 0.99857 0.49672
 C209 C 0.43337 1.05832 0.56488
 C210 C 0.44776 0.93080 0.42810
 C211 C 0.44600 0.91227 0.54859
 C212 C 0.43584 1.06940 0.43819
 O213 O 1.08720 1.04226 0.46788
 O214 O 0.90801 1.04618 0.55456
 O215 O 0.93042 1.03973 0.42628
 O216 O 1.00030 1.06787 0.56373
 O217 O 0.90443 1.06613 0.48293
 O218 O 1.07568 1.04869 0.54215
 O219 O 0.94669 1.01362 0.60592
 O220 O 1.02198 1.06737 0.43219
 C221 C 1.06752 1.07110 0.44309
 C222 C 0.90805 1.03597 0.59253
 C223 C 0.90929 1.07080 0.44551
 C224 C 1.04686 1.07687 0.56061
 O225 O 1.06441 0.95385 0.54645
 O226 O 0.89240 0.97327 0.46220
 O227 O 1.04969 0.98475 0.42278
 O228 O 0.97019 0.94484 0.56443
 O229 O 0.89888 0.95526 0.53512
 O230 O 1.07254 0.94646 0.47402
 O231 O 1.03780 0.99622 0.59350
 O232 O 0.95969 0.95653 0.42542
 Co233 Co 1.06857 0.99850 0.50717
 Co234 Co 0.90865 1.00961 0.50783
 Co235 Co 0.99017 1.01144 0.43343
 Co236 Co 0.98357 1.00631 0.56115
 O237 O 0.99005 1.00521 0.50021
 C238 C 1.06535 0.96426 0.58348
 C239 C 0.91480 0.94854 0.43559
 C240 C 1.06665 0.94842 0.43632
 C241 C 0.92646 0.93108 0.55740
 O242 O 0.57673 0.55776 -0.02453
 O243 O 0.40087 0.56605 0.01839
 O244 O 0.47042 0.55815 -0.07353
 O245 O 0.50997 0.57492 0.06744
 O246 O 0.39786 0.54031 -0.04818
 O247 O 0.58055 0.54840 0.04484
 O248 O 0.42391 0.54263 0.07588
 O249 O 0.55352 0.52293 -0.07756
 C250 C 0.57556 0.55650 -0.06196
 C251 C 0.40430 0.57328 0.05523
 C252 C 0.42521 0.56759 -0.06826
 C253 C 0.55624 0.58023 0.06157
 O254 O 0.57086 0.45283 0.03625
 O255 O 0.40209 0.44864 -0.02141
 O256 O 0.51096 0.44061 -0.06133
 O257 O 0.46092 0.45853 0.07737
 O258 O 0.39184 0.47505 0.04594
 O259 O 0.58181 0.46287 -0.03576
 O260 O 0.54465 0.49239 0.08551
 O261 O 0.42958 0.47405 -0.07708
 Co262 Co 0.56932 0.50530 0.00490
 Co263 Co 0.40621 0.50735 -0.00098
 Co264 Co 0.49085 0.49976 -0.06460
 Co265 Co 0.48504 0.51623 0.06901
 O266 O 0.48785 0.50726 0.00212
 C267 C 0.56516 0.45679 0.07359
 C268 C 0.40699 0.44298 -0.05850
 C269 C 0.55643 0.43363 -0.05554
 C270 C 0.41628 0.44879 0.06906
 C271 C 0.33023 1.12340 0.14662
 C272 C 0.33490 1.14262 0.10753
 N273 N 0.31503 1.18495 0.10000
 C274 C 0.29160 1.20941 0.13005
 C275 C 0.28863 1.19113 0.16981
 N276 N 0.30768 1.14811 0.17665
 N277 N 0.35055 1.08135 0.15451
 C278 C 0.37617 1.05788 0.12513
 C279 C 0.38218 1.07756 0.08627
 N280 N 0.36122 1.11954 0.07833
 H281 H 0.27659 1.24300 0.12294
 H282 H 0.39322 1.02503 0.13241
 C283 C 0.85722 0.63869 0.64890
 C284 C 0.85420 0.65468 0.60859
 N285 N 0.82461 0.69169 0.60005
 C286 C 0.79848 0.71384 0.63009
 C287 C 0.80297 0.69908 0.67093
 N288 N 0.83214 0.66139 0.67887
 N289 N 0.88470 0.60042 0.65743
 C290 C 0.90945 0.57731 0.62736
 C291 C 0.90760 0.59376 0.58704
 N292 N 0.87982 0.63219 0.57856
 H293 H 0.77488 0.74263 0.62192
 H294 H 0.93059 0.54655 0.63482
 C295 C 0.68275 0.87380 0.14172
 C296 C 0.68378 0.85633 0.10174
 N297 N 0.70543 0.81463 0.09476
 C298 C 0.72545 0.78935 0.12593
 C299 C 0.72327 0.80610 0.16634
 N300 N 0.70224 0.84839 0.17281
 N301 N 0.65974 0.91468 0.14922
 C302 C 0.63651 0.93840 0.11869
 C303 C 0.63598 0.92047 0.07875
 N304 N 0.66008 0.87981 0.07116
 H305 H 0.74172 0.75623 0.11902
 H306 H 0.61660 0.96995 0.12582
 C307 C 1.16098 0.35379 0.64777
 C308 C 1.15165 0.33213 0.61017
 N309 N 1.17176 0.28968 0.60308
 C310 C 1.19977 0.26756 0.63223
 C311 C 1.20709 0.28827 0.67080
 N312 N 1.18773 0.33130 0.67700
 N313 N 1.14245 0.39666 0.65484
 C314 C 1.11484 0.41905 0.62595
 C315 C 1.10412 0.39730 0.58846
 N316 N 1.12307 0.35414 0.58137
 H317 H 1.21443 0.23353 0.62584
 H318 H 1.10111 0.45348 0.63225
 C319 C 0.62939 1.15717 -0.14758
 C320 C 0.63888 1.16799 -0.10649
 N321 N 0.67214 1.20271 -0.09724
 C322 C 0.69677 1.22664 -0.12727
 C323 C 0.68783 1.21517 -0.16850
 N324 N 0.65386 1.18087 -0.17722
 N325 N 0.59751 1.12186 -0.15735
 C326 C 0.57526 1.09601 -0.12775
 C327 C 0.58534 1.10587 -0.08647
 N328 N 0.61660 1.14211 -0.07669
 H329 H 0.72297 1.25399 -0.11892
 H330 H 0.55078 1.06735 -0.13635
 C331 C 1.15748 0.62871 0.34770
 C332 C 1.18193 0.62412 0.38546
 N333 N 1.22431 0.64974 0.39343
 C334 C 1.24287 0.68037 0.36545
 C335 C 1.21672 0.68693 0.32844
 N336 N 1.17510 0.66007 0.32054
 N337 N 1.11552 0.60289 0.33921
 C338 C 1.09608 0.57320 0.36738
 C339 C 1.11914 0.56997 0.40587
 N340 N 1.16165 0.59554 0.41407
 H341 H 1.27678 0.69994 0.37253
 H342 H 1.06145 0.55429 0.36063
 C343 C 0.36449 0.81788 -0.12959
 C344 C 0.34033 0.85696 -0.11391
 N345 N 0.29297 0.86763 -0.12670
 C346 C 0.26883 0.84156 -0.15538
 C347 C 0.29367 0.80357 -0.17289
 N348 N 0.34099 0.79253 -0.15920
 N349 N 0.41188 0.80722 -0.11619
 C350 C 0.43642 0.83446 -0.08822
 C351 C 0.41296 0.87478 -0.07410
 N352 N 0.36529 0.88465 -0.08716
 H353 H 0.23153 0.85179 -0.16554
 H354 H 0.47432 0.82572 -0.07831
 C355 C 0.84016 0.36997 0.34376
 C356 C 0.83536 0.35483 0.38420
 N357 N 0.80650 0.31694 0.39253
 C358 C 0.78313 0.29272 0.36206
 C359 C 0.79037 0.30595 0.32109
 N360 N 0.81823 0.34494 0.31328
 N361 N 0.86737 0.40899 0.33558
 C362 C 0.89063 0.43325 0.36614
 C363 C 0.88773 0.41694 0.40646
 N364 N 0.85988 0.37812 0.41448
 H365 H 0.75994 0.26325 0.37004
 H366 H 0.91253 0.46397 0.35889
 C367 C 1.17840 0.36162 0.14137
 C368 C 1.14778 0.33798 0.11314
 N369 N 1.14675 0.29096 0.11334
 C370 C 1.17429 0.26651 0.14111
 C371 C 1.20381 0.29019 0.17037
 N372 N 1.20495 0.33732 0.16940
 N373 N 1.17888 0.40854 0.14191
 C374 C 1.14913 0.43309 0.11596
 C375 C 1.11671 0.40963 0.08864
 N376 N 1.11738 0.36244 0.08765
 H377 H 1.17179 0.22917 0.14117
 H378 H 1.14939 0.47043 0.11778
 C379 C 0.68063 0.85949 0.63879
 C380 C 0.64773 0.83541 0.61255
 N381 N 0.64545 0.78848 0.61440
 C382 C 0.67381 0.76458 0.64200
 C383 C 0.70566 0.78875 0.66934
 N384 N 0.70822 0.83575 0.66659
 N385 N 0.68212 0.90639 0.63790
 C386 C 0.65125 0.93052 0.61249
 C387 C 0.61674 0.90670 0.58713
 N388 N 0.61642 0.85950 0.58746
 H389 H 0.67007 0.72735 0.64353
 H390 H 0.65275 0.96786 0.61288
 C391 C 1.17950 0.64142 -0.14057
 C392 C 1.14438 0.66507 -0.11646
 N393 N 1.14163 0.71184 -0.11922
 C394 C 1.17127 0.73588 -0.14599
 C395 C 1.20441 0.71194 -0.17200
 N396 N 1.20788 0.66518 -0.16802
 N397 N 1.18215 0.59470 -0.13825
 C398 C 1.15012 0.57030 -0.11378
 C399 C 1.11272 0.59348 -0.09138
 N400 N 1.11148 0.64062 -0.09272
 H401 H 1.16693 0.77292 -0.14842
 H402 H 1.15297 0.53315 -0.11277
 C403 C 0.67678 1.14882 0.36256
 C404 C 0.63526 1.17103 0.38024
 N405 N 0.62548 1.21563 0.37002
 C406 C 0.65470 1.23862 0.34219
 C407 C 0.69514 1.21569 0.32317
 N408 N 0.70496 1.17133 0.33429
 N409 N 0.68643 1.10413 0.37193
 C410 C 0.65543 1.07999 0.39735
 C411 C 0.61216 1.10118 0.41354
 N412 N 0.60360 1.14667 0.40513
 H413 H 0.64513 1.27364 0.33382
 H414 H 0.66370 1.04423 0.40389
 C415 C 0.83057 0.63789 0.13387
 C416 C 0.86748 0.66205 0.11151
 N417 N 0.87131 0.70867 0.11547
 C418 C 0.84099 0.73210 0.14179
 C419 C 0.80560 0.70774 0.16593
 N420 N 0.80105 0.66110 0.16077
 N421 N 0.82724 0.59121 0.13047
 C422 C 0.86016 0.56739 0.10659
 C423 C 0.89899 0.59116 0.08582
 N424 N 0.90096 0.63821 0.08827
 H425 H 0.84620 0.76903 0.14516
 H426 H 0.85661 0.53030 0.10458
 C427 C 0.33003 1.12562 0.64309
 C428 C 0.35800 1.15078 0.61429
 N429 N 0.35532 1.19771 0.61418
 C430 C 0.32674 1.22068 0.64220
 C431 C 0.30017 1.19561 0.67224
 N432 N 0.30251 1.14854 0.67146
 N433 N 0.33309 1.07879 0.64376
 C434 C 0.36385 1.05587 0.61742
 C435 C 0.39376 1.08099 0.58955
 N436 N 0.38951 1.12801 0.58846
 H437 H 0.32634 1.25807 0.64194
 H438 H 0.36634 1.01862 0.61931
 C439 C 0.82284 0.35590 -0.12704
 C440 C 0.86685 0.33339 -0.11418
 N441 N 0.87450 0.28883 -0.12562
 C442 C 0.84103 0.26636 -0.15068
 C443 C 0.79841 0.28990 -0.16577
 N444 N 0.79026 0.33385 -0.15265
 N445 N 0.81550 0.40075 -0.11666
 C446 C 0.85112 0.42471 -0.09504
 C447 C 0.89665 0.40318 -0.08403
 N448 N 0.90286 0.35753 -0.09310
 H449 H 0.84940 0.23164 -0.16075
 H450 H 0.84424 0.46029 -0.08704
 C451 C 0.33130 0.85554 0.36880
 C452 C 0.37523 0.83337 0.38238
 N453 N 0.38251 0.78825 0.37278
 C454 C 0.34860 0.76467 0.34902
 C455 C 0.30555 0.78740 0.33376
 N456 N 0.29799 0.83227 0.34468
 N457 N 0.32469 0.90105 0.37703
 C458 C 0.36076 0.92581 0.39741
 C459 C 0.40585 0.90425 0.40956
 N460 N 0.41152 0.85818 0.40239
 H461 H 0.35680 0.72946 0.34029
 H462 H 0.35457 0.96204 0.40352
 C463 C 1.16249 1.15346 0.37013
 C464 C 1.11142 1.14652 0.35989
 N465 N 1.09347 1.16209 0.32355
 C466 C 1.12457 1.18413 0.29671
 C467 C 1.17601 1.19067 0.30664
 N468 N 1.19337 1.17544 0.34341
 N469 N 1.18079 1.13674 0.40598
 C470 C 1.15035 1.11232 0.43176
 C471 C 1.09943 1.10428 0.42103
 N472 N 1.08121 1.12214 0.38548
 H473 H 1.10925 1.19633 0.26799
 H474 H 1.16614 1.09808 0.45955
 C475 C 0.65493 0.65354 -0.13411
 C476 C 0.62774 0.61709 -0.15236
 N477 N 0.62805 0.61239 -0.19364
 C478 C 0.65470 0.64236 -0.21753
 C479 C 0.68259 0.67865 -0.19926
 N480 N 0.68174 0.68312 -0.15789
 N481 N 0.65483 0.65834 -0.09288
 C482 C 0.62897 0.62799 -0.06891
 C483 C 0.60232 0.59093 -0.08699
 N484 N 0.60217 0.58657 -0.12845
 H485 H 0.65460 0.63733 -0.25030
 H486 H 0.62955 0.63261 -0.03611
 C487 C 0.83372 1.11743 0.67896
 C488 C 0.83108 1.12730 0.63689
 N489 N 0.80928 1.16646 0.62391
 C490 C 0.79028 1.19675 0.65096
 C491 C 0.79329 1.18800 0.69351
 N492 N 0.81464 1.14793 0.70644
 N493 N 0.85656 1.07810 0.69150
 C494 C 0.87802 1.04913 0.66388
 C495 C 0.87690 1.06035 0.62197
 N496 N 0.85273 1.09882 0.60957
 H497 H 0.77274 1.22723 0.63869
 H498 H 0.89736 1.01861 0.67463
 C499 C 0.33063 0.67496 0.12367
 C500 C 0.37524 0.65423 0.13771
 N501 N 0.39176 0.66222 0.17627
 C502 C 0.36453 0.68859 0.20227
 C503 C 0.31774 0.70679 0.18949
 N504 N 0.30280 0.70066 0.14993
 N505 N 0.31386 0.66586 0.08511
 C506 C 0.33895 0.63572 0.06051
 C507 C 0.38184 0.61293 0.07574
 N508 N 0.39925 0.62351 0.11371
 H509 H 0.37856 0.69353 0.23308
 H510 H 0.32386 0.62760 0.03055
 C511 C 1.13054 0.88020 0.67346
 C512 C 1.13458 0.86992 0.63149
 N513 N 1.16049 0.83284 0.61912
 C514 C 1.18288 0.80524 0.64659
 C515 C 1.17885 0.81429 0.68917
 N516 N 1.15279 0.85218 0.70151
 N517 N 1.10596 0.91895 0.68514
 C518 C 1.08530 0.94743 0.65671
 C519 C 1.08937 0.93646 0.61480
 N520 N 1.11390 0.89795 0.60337
 H521 H 1.20621 0.77823 0.63437
 H522 H 1.06568 0.97809 0.66674
 C523 C 0.63056 0.36993 0.16228
 C524 C 0.63963 0.36283 0.12035
 N525 N 0.67161 0.32931 0.10849
 C526 C 0.69546 0.30284 0.13649
 C527 C 0.68748 0.31009 0.17881
 N528 N 0.65475 0.34361 0.19054
 N529 N 0.59845 0.40364 0.17401
 C530 C 0.57568 0.43093 0.14580
 C531 C 0.58577 0.42457 0.10383
 N532 N 0.61729 0.39028 0.09212
 H533 H 0.72016 0.27622 0.12530
 H534 H 0.55064 0.45790 0.15617
 C535 C 0.83907 0.84680 0.36672
 C536 C 0.88671 0.86350 0.35497
 N537 N 0.90734 0.84943 0.31907
 C538 C 0.88156 0.82020 0.29370
 C539 C 0.83291 0.80476 0.30479
 N540 N 0.81376 0.81780 0.34153
 N541 N 0.81724 0.86231 0.40164
 C542 C 0.84087 0.89464 0.42527
 C543 C 0.88832 0.91199 0.41321
 N544 N 0.91027 0.89548 0.37855
 H545 H 0.89813 0.81047 0.26474
 H546 H 0.82264 0.90693 0.45277
 C547 C 0.33799 0.33680 -0.12832
 C548 C 0.37261 0.36791 -0.14579
 N549 N 0.38217 0.36595 -0.18648
 C550 C 0.35784 0.33477 -0.21085
 C551 C 0.32175 0.30439 -0.19383
 N552 N 0.31328 0.30596 -0.15270
 N553 N 0.32804 0.33934 -0.08760
 C554 C 0.35075 0.37213 -0.06364
 C555 C 0.38440 0.40418 -0.08142
 N556 N 0.39469 0.40082 -0.12208
 H557 H 0.36570 0.33471 -0.24329
 H558 H 0.34170 0.37387 -0.03142
 C559 C 1.17140 0.35658 -0.14364
 C560 C 1.15455 0.33399 -0.10824
 N561 N 1.16311 0.28789 -0.10406
 C562 C 1.18709 0.26342 -0.13396
 C563 C 1.20295 0.28607 -0.16980
 N564 N 1.19491 0.33225 -0.17316
 N565 N 1.16096 0.40179 -0.14945
 C566 C 1.13335 0.42553 -0.12177
 C567 C 1.11543 0.40328 -0.08648
 N568 N 1.12675 0.35782 -0.08027
 H569 H 1.19252 0.22671 -0.13015
 H570 H 1.12323 0.46085 -0.12830
 C571 C 0.68251 0.86568 0.35505
 C572 C 0.66274 0.84163 0.38868
 N573 N 0.66839 0.79500 0.39068
 C574 C 0.69234 0.77135 0.36032
 C575 C 0.71119 0.79539 0.32617
 N576 N 0.70585 0.84212 0.32489
 N577 N 0.67513 0.91177 0.35158
 C578 C 0.64755 0.93494 0.37975
 C579 C 0.62628 0.91103 0.41294
 N580 N 0.63478 0.86477 0.41690
 H581 H 0.69521 0.73429 0.36241
 H582 H 0.64003 0.97123 0.37512
 C583 C 0.82956 0.63578 -0.13694
 C584 C 0.85900 0.66211 -0.10955
 N585 N 0.85898 0.70891 -0.11255
 C586 C 0.83143 0.73055 -0.14202
 C587 C 0.80170 0.70425 -0.16950
 N588 N 0.80173 0.65736 -0.16598
 N589 N 0.83268 0.58905 -0.13644
 C590 C 0.86445 0.56737 -0.11013
 C591 C 0.89393 0.59340 -0.08256
 N592 N 0.89040 0.64036 -0.08284
 H593 H 0.83346 0.76781 -0.14436
 H594 H 0.86829 0.53034 -0.11186
 C595 C 0.33476 1.13166 0.35640
 C596 C 0.35104 1.15585 0.39129
 N597 N 0.34025 1.20155 0.39477
 C598 C 0.31466 1.22422 0.36466
 C599 C 0.29932 1.20016 0.32926
 N600 N 0.30958 1.15426 0.32654
 N601 N 0.34762 1.08683 0.35136
 C602 C 0.37717 1.06517 0.37923
 C603 C 0.39465 1.08928 0.41386
 N604 N 0.38079 1.13419 0.41933
 H605 H 0.30796 1.26072 0.36791
 H606 H 0.38901 1.03010 0.37338
 C607 C 1.17452 0.65232 0.13205
 C608 C 1.13190 0.67376 0.11522
 N609 N 1.11930 0.71687 0.12806
 C610 C 1.14708 0.73931 0.15732
 C611 C 1.18948 0.71761 0.17479
 N612 N 1.20163 0.67441 0.16154
 N613 N 1.18643 0.60869 0.12041
 C614 C 1.15699 0.58505 0.09315
 C615 C 1.11354 0.60586 0.07696
 N616 N 1.10205 0.64992 0.08836
 H617 H 1.13544 0.77317 0.16750
 H618 H 1.16632 0.54979 0.08533
 C619 C 0.65441 1.15171 0.64523
 C620 C 0.63512 1.17472 0.61110
 N621 N 0.64095 1.22164 0.60875
 C622 C 0.66501 1.24624 0.63915
 C623 C 0.68358 1.22278 0.67365
 N624 N 0.67743 1.17608 0.67506
 N625 N 0.64874 1.10542 0.64895
 C626 C 0.62343 1.08064 0.62025
 C627 C 0.60255 1.10305 0.58624
 N628 N 0.60911 1.14989 0.58210
 H629 H 0.66943 1.28332 0.63650
 H630 H 0.61803 1.04389 0.62472
 C631 C 0.84105 0.35680 0.13644
 C632 C 0.86176 0.33206 0.10377
 N633 N 0.85346 0.28552 0.10150
 C634 C 0.82596 0.26279 0.13079
 C635 C 0.80601 0.28788 0.16380
 N636 N 0.81402 0.33428 0.16507
 N637 N 0.85098 0.40244 0.14082
 C638 C 0.88160 0.42480 0.11418
 C639 C 0.90291 0.40065 0.08138
 N640 N 0.89238 0.35459 0.07662
 H641 H 0.82041 0.22577 0.12869
 H642 H 0.89100 0.46069 0.11955
 C643 C 0.35637 0.81782 0.61561
 C644 C 0.34666 0.86555 0.61594
 N645 N 0.31084 0.88256 0.64076
 C646 C 0.28485 0.85457 0.66624
 C647 C 0.29536 0.80649 0.66815
 N648 N 0.33117 0.78927 0.64223
 N649 N 0.39274 0.80153 0.59007
 C650 C 0.42008 0.83092 0.56580
 C651 C 0.41170 0.87886 0.56804
 N652 N 0.37497 0.89477 0.59300
 H653 H 0.25769 0.87088 0.68606
 H654 H 0.44973 0.81734 0.54652
 C655 C 0.36316 1.17324 -0.12632
 C656 C 0.33596 1.13562 -0.11026
 N657 N 0.28710 1.12850 -0.12172
 C658 C 0.26435 1.15656 -0.14937
 C659 C 0.29191 1.19323 -0.16726
 N660 N 0.34088 1.20073 -0.15489
 N661 N 0.41211 1.18026 -0.11443
 C662 C 0.43515 1.15105 -0.08757
 C663 C 0.40844 1.11227 -0.07272
 N664 N 0.35926 1.10590 -0.08440
 H665 H 0.22580 1.14875 -0.15858
 H666 H 0.47424 1.15724 -0.07884
 C667 C 0.87058 0.67053 0.35917
 C668 C 0.84106 0.63944 0.38190
 N669 N 0.79005 0.63785 0.37573
 C670 C 0.76727 0.66573 0.34766
 C671 C 0.79666 0.69734 0.32495
 N672 N 0.84782 0.69855 0.33150
 N673 N 0.92175 0.67092 0.36386
 C674 C 0.94490 0.64165 0.39042
 C675 C 0.91557 0.61063 0.41375
 N676 N 0.86407 0.61049 0.40890
 H677 H 0.72697 0.66205 0.34225
 H678 H 0.98575 0.64298 0.39361
 C679 C 0.69853 1.13285 0.12109
 C680 C 0.64705 1.14211 0.11484
 N681 N 0.62528 1.17854 0.13303
 C682 C 0.65220 1.20628 0.15814
 C683 C 0.70397 1.19740 0.16612
 N684 N 0.72608 1.16039 0.14721
 N685 N 0.71914 1.09556 0.10186
 C686 C 0.69022 1.06739 0.07713
 C687 C 0.63818 1.07646 0.07246
 N688 N 0.61869 1.11384 0.09139
 H689 H 0.63198 1.23386 0.17301
 H690 H 0.70721 1.03803 0.06213
 C691 C 1.18783 0.64172 0.62536
 C692 C 1.13539 0.64977 0.62282
 N693 N 1.11467 0.68418 0.64455
 C694 C 1.14359 0.71106 0.66905
 C695 C 1.19677 0.70405 0.67213
 N696 N 1.21748 0.66877 0.65021
 N697 N 1.20776 0.60641 0.60341
 C698 C 1.17767 0.57939 0.57903
 C699 C 1.12516 0.58794 0.57660
 N700 N 1.10558 0.62298 0.59873
 H701 H 1.12428 0.73709 0.68665
 H702 H 1.19459 0.55186 0.56145
 C703 C 0.63467 0.83818 -0.14882
 C704 C 0.64593 0.82801 -0.10794
 N705 N 0.68437 0.79854 -0.09952
 C706 C 0.71215 0.77900 -0.13002
 C707 C 0.70148 0.78943 -0.17124
 N708 N 0.66247 0.81882 -0.17916
 N709 N 0.59678 0.86796 -0.15761
 C710 C 0.57026 0.88888 -0.12732
 C711 C 0.58204 0.87985 -0.08613
 N712 N 0.61961 0.84917 -0.07741
 H713 H 0.74115 0.75492 -0.12178
 H714 H 0.54127 0.91359 -0.13525
 C715 C 1.13900 0.31902 0.36367
 C716 C 1.16716 0.35224 0.38535
 N717 N 1.21774 0.35662 0.37839
 C718 C 1.24138 0.32953 0.35033
 C719 C 1.21327 0.29599 0.32861
 N720 N 1.16262 0.29189 0.33605
 N721 N 1.08810 0.31586 0.36909
 C722 C 1.06390 0.34454 0.39539
 C723 C 1.09198 0.37769 0.41751
 N724 N 1.14315 0.38054 0.41202
 H725 H 1.28123 0.33522 0.34419
 H726 H 1.02330 0.34114 0.39929
 C727 C 0.33761 0.87050 0.15556
 C728 C 0.32133 0.86413 0.11510
 N729 N 0.28258 0.83407 0.10729
 C730 C 0.25999 0.80958 0.13798
 C731 C 0.27704 0.81512 0.17855
 N732 N 0.31526 0.84603 0.18596
 N733 N 0.37757 0.89886 0.16365
 C734 C 0.40282 0.92055 0.13297
 C735 C 0.38754 0.91368 0.09220
 N736 N 0.34659 0.88588 0.08419
 H737 H 0.23035 0.78526 0.13030
 H738 H 0.43539 0.94210 0.14024
 C739 C 0.81470 0.36249 0.63089
 C740 C 0.86466 0.34709 0.62544
 N741 N 0.88070 0.30918 0.64541
 C742 C 0.84945 0.28604 0.67104
 C743 C 0.79910 0.30116 0.67726
 N744 N 0.78312 0.33952 0.65696
 N745 N 0.79910 0.40074 0.61062
 C746 C 0.83108 0.42389 0.58506
 C747 C 0.88113 0.40835 0.57977
 N748 N 0.89657 0.37026 0.60024
 H749 H 0.86473 0.25672 0.68721
 H750 H 0.81752 0.45396 0.56886
 C751 C 1.11589 1.16583 0.64666
 C752 C 1.13138 1.12011 0.64097
 N753 N 1.16821 1.10222 0.66480
 C754 C 1.19196 1.12852 0.69334
 C755 C 1.17977 1.17561 0.69728
 N756 N 1.14079 1.19284 0.67446
 N757 N 1.07707 1.18251 0.62355
 C758 C 1.05345 1.15536 0.59490
 C759 C 1.07078 1.11021 0.58831
 N760 N 1.10901 1.09390 0.61188
 H761 H 1.22142 1.11284 0.71154
 H762 H 1.02212 1.16888 0.57731
 C763 C 0.65381 0.66746 0.12669
 C764 C 0.60514 0.65744 0.14184
 N765 N 0.59314 0.66981 0.18057
 C766 C 0.62779 0.69127 0.20500
 C767 C 0.67708 0.70024 0.19025
 N768 N 0.68851 0.68836 0.15121
 N769 N 0.66639 0.65418 0.08837
 C770 C 0.63306 0.62986 0.06496
 C771 C 0.58519 0.61772 0.08074
 N772 N 0.57204 0.63251 0.11869
 H773 H 0.61691 0.70081 0.23572
 H774 H 0.64499 0.61759 0.03529
 C775 C 1.12159 0.85708 0.34573
 C776 C 1.13534 0.85073 0.38693
 N777 N 1.16959 0.81788 0.39643
 C778 C 1.19152 0.79200 0.36675
 C779 C 1.18004 0.79988 0.32508
 N780 N 1.14453 0.83209 0.31588
 N781 N 1.08722 0.88968 0.33601
 C782 C 1.06711 0.91711 0.36531
 C783 C 1.08282 0.91286 0.40647
 N784 N 1.11618 0.87899 0.41643
 H785 H 1.21964 0.76739 0.37586
 H786 H 1.04024 0.94312 0.35616
 C787 C 0.62369 0.34191 -0.13774
 C788 C 0.64125 0.38755 -0.13348
 N789 N 0.67779 0.40400 -0.15873
 C790 C 0.69868 0.37643 -0.18757
 C791 C 0.68341 0.32981 -0.19038
 N792 N 0.64548 0.31402 -0.16579
 N793 N 0.58527 0.32629 -0.11371
 C794 C 0.56350 0.35453 -0.08561
 C795 C 0.58205 0.39981 -0.08076
 N796 N 0.62036 0.41519 -0.10496
 H797 H 0.72826 0.39042 -0.20690
 H798 H 0.53196 0.34199 -0.06751
 C799 C 0.83554 1.16728 0.37081
 C800 C 0.87382 1.13893 0.35570
 N801 N 0.88457 1.13883 0.31521
 C802 C 0.85797 1.16539 0.28875
 C803 C 0.81827 1.19294 0.30342
 N804 N 0.80873 1.19351 0.34432
 N805 N 0.82430 1.16647 0.41139
 C806 C 0.84914 1.13763 0.43742
 C807 C 0.88626 1.10800 0.42183
 N808 N 0.89790 1.11003 0.38139
 H809 H 0.86735 1.16421 0.25660
 H810 H 0.83867 1.13656 0.46938
 C811 C 0.34479 0.66448 -0.13624
 C812 C 0.38890 0.64477 -0.15229
 N813 N 0.40152 0.65264 -0.19190
 C814 C 0.37141 0.67870 -0.21638
 C815 C 0.32643 0.69723 -0.20053
 N816 N 0.31497 0.69015 -0.16062
 N817 N 0.33080 0.65553 -0.09724
 C818 C 0.35832 0.62652 -0.07372
 C819 C 0.40157 0.60552 -0.09003
 N820 N 0.41640 0.61563 -0.12882
 H821 H 0.38216 0.68423 -0.24791
 H822 H 0.34556 0.61859 -0.04309
 C823 C 0.84552 0.83765 0.63017
 C824 C 0.88981 0.85868 0.64514
 N825 N 0.90192 0.85414 0.68539
 C826 C 0.87152 0.82960 0.71132
 C827 C 0.82658 0.80905 0.69641
 N828 N 0.81533 0.81366 0.65604
 N829 N 0.83238 0.84278 0.59033
 C830 C 0.86088 0.86932 0.56484
 C831 C 0.90437 0.89202 0.57994
 N832 N 0.91812 0.88564 0.61979
 H833 H 0.88234 0.82624 0.74310
 H834 H 0.84832 0.87456 0.53366
 C835 C 0.33706 0.34600 0.13361
 C836 C 0.38580 0.35955 0.14612
 N837 N 0.40531 0.34226 0.18138
 C838 C 0.37765 0.31276 0.20510
 C839 C 0.32802 0.30053 0.19318
 N840 N 0.30969 0.31720 0.15741
 N841 N 0.31655 0.36383 0.09913
 C842 C 0.34230 0.39566 0.07682
 C843 C 0.39053 0.41059 0.08986
 N844 N 0.41154 0.39165 0.12399
 H845 H 0.39366 0.30021 0.23344
 H846 H 0.32476 0.40994 0.04972
   
