data_POSCAR
  _audit_creation_date              2014-09-24
  _audit_creation_method            'ToBaCCo'
  _symmetry_space_group_name_H-M    'P1'
  _symmetry_Int_Tables_number       1
  _symmetry_cell_setting            triclinic
  loop_
  _symmetry_equiv_pos_as_xyz
 x,y,z
_cell_length_a 52.1398
_cell_length_b 51.5682
_cell_length_c 52.1303
_cell_angle_alpha 90.024600
_cell_angle_beta 89.996300
_cell_angle_gamma 89.980200
loop_
  _atom_site_label
  _atom_site_type_symbol
  _atom_site_fract_x
  _atom_site_fract_y
  _atom_site_fract_z
C1 C 0.60594 0.62471 0.64514
 C2 C 0.58689 0.64392 0.64488
 C3 C 0.58685 0.66301 0.62577
 C4 C 0.60585 0.66306 0.60677
 C5 C 0.62505 0.64400 0.60673
 C6 C 0.62514 0.62471 0.62599
 C7 C 0.60616 0.60550 0.66418
 C8 C 0.62529 0.58639 0.66425
 C9 C 0.64435 0.58636 0.64528
 C10 C 0.64440 0.60543 0.62610
 C11 C 0.66338 0.60558 0.60701
 C12 C 0.66325 0.62472 0.58794
 C13 C 0.64417 0.64385 0.58780
 H14 H 0.57208 0.64406 0.65950
 H15 H 0.60565 0.67792 0.59205
 H16 H 0.59146 0.60541 0.67892
 H17 H 0.65910 0.57151 0.64544
 H18 H 0.67824 0.59086 0.60695
 H19 H 0.64424 0.65858 0.57294
 C20 C 0.89503 0.37465 0.14431
 C21 C 0.91406 0.35541 0.14409
 C22 C 0.91411 0.33628 0.12498
 C23 C 0.89512 0.33625 0.10594
 C24 C 0.87595 0.35534 0.10588
 C25 C 0.87587 0.37465 0.12513
 C26 C 0.89479 0.39389 0.16334
 C27 C 0.87569 0.41300 0.16337
 C28 C 0.85668 0.41304 0.14439
 C29 C 0.85662 0.39396 0.12520
 C30 C 0.83768 0.39381 0.10610
 C31 C 0.83781 0.37466 0.08704
 C32 C 0.85686 0.35550 0.08692
 H33 H 0.92882 0.35533 0.15878
 H34 H 0.89527 0.32138 0.09120
 H35 H 0.90942 0.39403 0.17813
 H36 H 0.84198 0.42793 0.14458
 H37 H 0.82284 0.40856 0.10602
 H38 H 0.85678 0.34075 0.07207
 C39 C 0.39440 0.12461 -0.14477
 C40 C 0.41346 0.14381 -0.14455
 C41 C 0.41353 0.16291 -0.12543
 C42 C 0.39456 0.16299 -0.10640
 C43 C 0.37536 0.14394 -0.10633
 C44 C 0.37524 0.12465 -0.12560
 C45 C 0.39415 0.10539 -0.16382
 C46 C 0.37501 0.08630 -0.16387
 C47 C 0.35599 0.08630 -0.14486
 C48 C 0.35597 0.10539 -0.12568
 C49 C 0.33702 0.10557 -0.10657
 C50 C 0.33718 0.12472 -0.08750
 C51 C 0.35627 0.14383 -0.08737
 H52 H 0.42824 0.14393 -0.15919
 H53 H 0.39479 0.17787 -0.09169
 H54 H 0.40882 0.10529 -0.17859
 H55 H 0.34122 0.07147 -0.14501
 H56 H 0.32216 0.09086 -0.10649
 H57 H 0.35622 0.15857 -0.07252
 C58 C 0.10509 0.87468 0.35585
 C59 C 0.08601 0.85550 0.35610
 C60 C 0.08593 0.83641 0.37524
 C61 C 0.10492 0.83638 0.39428
 C62 C 0.12413 0.85542 0.39431
 C63 C 0.12425 0.87468 0.37503
 C64 C 0.10536 0.89386 0.33679
 C65 C 0.12449 0.91292 0.33672
 C66 C 0.14351 0.91297 0.35570
 C67 C 0.14353 0.89393 0.37492
 C68 C 0.16248 0.89379 0.39402
 C69 C 0.16231 0.87468 0.41311
 C70 C 0.14322 0.85557 0.41327
 H71 H 0.07126 0.85542 0.34141
 H72 H 0.10474 0.82155 0.40905
 H73 H 0.09073 0.89400 0.32199
 H74 H 0.15824 0.92781 0.35547
 H75 H 0.17735 0.90849 0.39407
 H76 H 0.14327 0.84086 0.42814
 N77 N 0.09449 0.16582 0.11298
 N78 N 0.08416 0.15494 0.13333
 C79 C 0.06337 0.16872 0.14044
 C80 C 0.06069 0.18914 0.12361
 C81 C 0.08064 0.18685 0.10643
 H82 H 0.05110 0.16431 0.15658
 H83 H 0.08474 0.19951 0.09041
 Cu84 Cu 0.09893 0.12390 0.14855
 Cu85 Cu 0.12509 0.15198 0.09652
 Cu86 Cu 0.15242 0.09726 0.12385
 N87 N 0.11483 0.09354 0.16400
 N88 N 0.13575 0.08322 0.15423
 C89 C 0.14269 0.06260 0.16847
 C90 C 0.12519 0.06000 0.18809
 C91 C 0.10777 0.07982 0.18483
 H92 H 0.15920 0.05043 0.16485
 H93 H 0.09127 0.08388 0.19674
 N94 N 0.16647 0.11427 0.09307
 N95 N 0.15605 0.13513 0.08266
 C96 C 0.16995 0.14208 0.06197
 C97 C 0.18990 0.12478 0.05940
 C98 C 0.18726 0.10741 0.07928
 H99 H 0.16591 0.15845 0.04967
 H100 H 0.19957 0.09104 0.08332
 H101 H 0.12006 0.11395 0.10796
 H102 H 0.14005 0.13498 0.12918
 N103 N 0.40469 0.83372 0.61396
 N104 N 0.41472 0.84436 0.63460
 C105 C 0.43556 0.83064 0.64168
 C106 C 0.43856 0.81051 0.62456
 C107 C 0.41876 0.81291 0.60722
 H108 H 0.44765 0.83490 0.65800
 H109 H 0.41491 0.80047 0.59096
 Cu110 Cu 0.39951 0.87505 0.65009
 Cu111 Cu 0.37415 0.84761 0.59739
 Cu112 Cu 0.34674 0.90234 0.62474
 N113 N 0.38398 0.90574 0.66527
 N114 N 0.36332 0.91632 0.65524
 C115 C 0.35655 0.93714 0.66929
 C116 C 0.37391 0.93962 0.68906
 C117 C 0.39106 0.91951 0.68608
 H118 H 0.34027 0.94955 0.66543
 H119 H 0.40740 0.91530 0.69816
 N120 N 0.33280 0.88536 0.59387
 N121 N 0.34324 0.86451 0.58346
 C122 C 0.32940 0.85757 0.56273
 C123 C 0.30946 0.87487 0.56013
 C124 C 0.31204 0.89222 0.58004
 H125 H 0.33346 0.84119 0.55042
 H126 H 0.29971 0.90858 0.58409
 H127 H 0.37922 0.88551 0.60924
 H128 H 0.35867 0.86446 0.62987
 N129 N 0.90478 0.66685 0.38642
 N130 N 0.91453 0.65658 0.36546
 C131 C 0.93533 0.67036 0.35838
 C132 C 0.93858 0.69016 0.37584
 C133 C 0.91900 0.68749 0.39337
 H134 H 0.94721 0.66635 0.34185
 H135 H 0.91538 0.69963 0.40991
 Cu136 Cu 0.89913 0.62622 0.34953
 Cu137 Cu 0.87446 0.65273 0.40311
 Cu138 Cu 0.84719 0.59801 0.37572
 N139 N 0.88395 0.59517 0.33473
 N140 N 0.86363 0.58424 0.34507
 C141 C 0.85710 0.56322 0.33119
 C142 C 0.87426 0.56100 0.31122
 C143 C 0.89105 0.58144 0.31390
 H144 H 0.84111 0.55053 0.33530
 H145 H 0.90717 0.58590 0.30162
 N146 N 0.83334 0.61478 0.40674
 N147 N 0.84374 0.63563 0.41718
 C148 C 0.82997 0.64243 0.43800
 C149 C 0.81012 0.62503 0.44064
 C150 C 0.81269 0.60777 0.42065
 H151 H 0.83400 0.65879 0.45034
 H152 H 0.80040 0.59139 0.41659
 H153 H 0.87984 0.61503 0.39067
 H154 H 0.85856 0.63607 0.37074
 N155 N 0.59553 0.33369 -0.11390
 N156 N 0.58547 0.34433 -0.13451
 C157 C 0.56465 0.33061 -0.14161
 C158 C 0.56168 0.31046 -0.12451
 C159 C 0.58148 0.31287 -0.10717
 H160 H 0.55254 0.33487 -0.15792
 H161 H 0.58535 0.30042 -0.09093
 Cu162 Cu 0.60064 0.37505 -0.14997
 Cu163 Cu 0.62604 0.34759 -0.09731
 Cu164 Cu 0.65337 0.40236 -0.12459
 N165 N 0.61612 0.40576 -0.16510
 N166 N 0.63677 0.41635 -0.15505
 C167 C 0.64351 0.43719 -0.16907
 C168 C 0.62615 0.43966 -0.18884
 C169 C 0.60902 0.41954 -0.18589
 H170 H 0.65978 0.44959 -0.16520
 H171 H 0.59269 0.41533 -0.19798
 N172 N 0.66734 0.38536 -0.09375
 N173 N 0.65693 0.36450 -0.08336
 C174 C 0.67079 0.35756 -0.06264
 C175 C 0.69071 0.37487 -0.06002
 C176 C 0.68809 0.39224 -0.07991
 H177 H 0.66676 0.34117 -0.05036
 H178 H 0.70040 0.40861 -0.08393
 H179 H 0.62092 0.38550 -0.10910
 H180 H 0.64151 0.36448 -0.12976
 C181 C 0.00078 0.26526 0.10288
 C182 C -0.02846 0.26003 0.10405
 C183 C -0.03099 0.28119 0.12465
 C184 C -0.00207 0.28672 0.12348
 C185 C 0.00480 0.24524 0.12433
 C186 C 0.00227 0.26640 0.14493
 C187 C -0.02413 0.23970 0.12550
 C188 C -0.02697 0.26117 0.14610
 C189 C -0.05093 0.30120 0.12480
 C190 C -0.06734 0.31767 0.12490
 C191 C 0.02474 0.22522 0.12411
 C192 C 0.04114 0.20875 0.12390
 H193 H 0.01241 0.26671 0.08510
 H194 H -0.04131 0.25764 0.08724
 H195 H 0.00678 0.30628 0.12266
 H196 H 0.01512 0.26879 0.16174
 H197 H -0.03297 0.22014 0.12632
 H198 H -0.03861 0.25972 0.16388
 C199 C 0.50957 0.74570 0.60121
 C200 C 0.53485 0.74715 0.61676
 C201 C 0.53074 0.71897 0.62537
 C202 C 0.50577 0.71721 0.60981
 C203 C 0.49477 0.75474 0.62508
 C204 C 0.49066 0.72655 0.63368
 C205 C 0.51974 0.75650 0.64063
 C206 C 0.51594 0.72800 0.64924
 C207 C 0.55075 0.69903 0.62552
 C208 C 0.56721 0.68262 0.62564
 C209 C 0.47473 0.77465 0.62491
 C210 C 0.45823 0.79102 0.62475
 H211 H 0.50673 0.75320 0.58145
 H212 H 0.55324 0.75539 0.60981
 H213 H 0.50025 0.70083 0.59714
 H214 H 0.47227 0.71831 0.64064
 H215 H 0.52526 0.77288 0.65330
 H216 H 0.51878 0.72051 0.66900
 C217 C 0.99730 0.76728 0.35533
 C218 C 1.00197 0.78723 0.37706
 C219 C 1.03085 0.78154 0.37549
 C220 C 1.02649 0.76190 0.35376
 C221 C 0.99487 0.74581 0.37561
 C222 C 1.02375 0.74012 0.37404
 C223 C 0.99923 0.76546 0.39734
 C224 C 1.02843 0.76008 0.39577
 C225 C 1.05087 0.80146 0.37541
 C226 C 1.06734 0.81786 0.37534
 C227 C 0.97481 0.72593 0.37568
 C228 C 0.95829 0.70960 0.37575
 H229 H 0.98428 0.77002 0.33870
 H230 H 0.99324 0.80683 0.37830
 H231 H 1.03793 0.76066 0.33583
 H232 H 1.03249 0.72053 0.37279
 H233 H 0.98780 0.76670 0.41526
 H234 H 1.04145 0.75734 0.41239
 C235 C 0.50673 0.22934 -0.10952
 C236 C 0.47853 0.23360 -0.10115
 C237 C 0.46959 0.21888 -0.12517
 C238 C 0.49749 0.21432 -0.13354
 C239 C 0.50552 0.25468 -0.12497
 C240 C 0.49659 0.23996 -0.14899
 C241 C 0.47763 0.25924 -0.11660
 C242 C 0.46839 0.24422 -0.14063
 C243 C 0.44960 0.19894 -0.12527
 C244 C 0.43316 0.18253 -0.12535
 C245 C 0.52554 0.27460 -0.12484
 C246 C 0.54202 0.29097 -0.12470
 H247 H 0.52272 0.22345 -0.09672
 H248 H 0.47087 0.23076 -0.08148
 H249 H 0.50543 0.19562 -0.14051
 H250 H 0.50424 0.24280 -0.16867
 H251 H 0.46968 0.27794 -0.10963
 H252 H 0.45240 0.25011 -0.15342
 C253 C 0.12774 -0.02478 0.23952
 C254 C 0.14718 -0.02643 0.26195
 C255 C 0.12481 -0.03122 0.28054
 C256 C 0.10538 -0.02987 0.25843
 C257 C 0.12496 0.00446 0.24450
 C258 C 0.10260 -0.00033 0.26309
 C259 C 0.14440 0.00311 0.26661
 C260 C 0.12203 -0.00199 0.28551
 C261 C 0.12472 -0.05111 0.30059
 C262 C 0.12462 -0.06749 0.31706
 C263 C 0.12504 0.02430 0.22440
 C264 C 0.12511 0.04060 0.20785
 H265 H 0.13009 -0.03393 0.22039
 H266 H 0.16551 -0.03739 0.26170
 H267 H 0.08933 -0.04366 0.25529
 H268 H 0.08427 0.01062 0.26334
 H269 H 0.16044 0.01689 0.26975
 H270 H 0.11968 0.00716 0.30465
 C271 C 0.60268 0.51306 -0.25112
 C272 C 0.62098 0.53670 -0.25214
 C273 C 0.62552 0.53139 -0.28079
 C274 C 0.60722 0.50806 -0.28007
 C275 C 0.62570 0.49555 -0.24491
 C276 C 0.63024 0.49024 -0.27356
 C277 C 0.64401 0.51888 -0.24563
 C278 C 0.64854 0.51388 -0.27458
 C279 C 0.62543 0.55136 -0.30076
 C280 C 0.62536 0.56780 -0.31719
 C281 C 0.62583 0.47559 -0.22492
 C282 C 0.62596 0.45919 -0.20847
 H283 H 0.58382 0.51250 -0.24124
 H284 H 0.61718 0.55602 -0.24356
 H285 H 0.59209 0.50384 -0.29446
 H286 H 0.63405 0.47092 -0.28214
 H287 H 0.65914 0.52310 -0.23124
 H288 H 0.66740 0.51445 -0.28446
 C289 C 0.37069 1.02461 0.74023
 C290 C 0.35189 1.02584 0.76321
 C291 C 0.37465 1.03131 0.78112
 C292 C 0.39346 1.03039 0.75845
 C293 C 0.37439 0.99548 0.74520
 C294 C 0.39715 1.00095 0.76311
 C295 C 0.35558 0.99641 0.76787
 C296 C 0.37834 1.00219 0.78609
 C297 C 0.37479 1.05128 0.80111
 C298 C 0.37489 1.06771 0.81755
 C299 C 0.37423 0.97554 0.72518
 C300 C 0.37409 0.95914 0.70871
 H301 H 0.36754 1.03361 0.72114
 H302 H 0.33328 1.03630 0.76347
 H303 H 0.40903 1.04458 0.75480
 H304 H 0.41576 0.99049 0.76285
 H305 H 0.34000 0.98221 0.77152
 H306 H 0.38149 0.99319 0.80518
 C307 C 0.86033 0.50692 0.22973
 C308 C 0.88454 0.49711 0.21547
 C309 C 0.87532 0.46909 0.21937
 C310 C 0.85111 0.47859 0.23331
 C311 C 0.87499 0.50499 0.25522
 C312 C 0.86577 0.47697 0.25912
 C313 C 0.89919 0.49548 0.24128
 C314 C 0.88997 0.46716 0.24486
 C315 C 0.87548 0.44910 0.19940
 C316 C 0.87559 0.43265 0.18298
 C317 C 0.87477 0.52497 0.27520
 C318 C 0.87455 0.54141 0.29163
 H319 H 0.84814 0.52349 0.22373
 H320 H 0.89226 0.50517 0.19730
 H321 H 0.83135 0.47143 0.22982
 H322 H 0.85805 0.46891 0.27729
 H323 H 0.91896 0.50265 0.24478
 H324 H 0.90216 0.45058 0.25086
 C325 C 0.24876 0.14596 -0.01671
 C326 C 0.27803 0.14621 -0.01158
 C327 C 0.28141 0.12481 -0.03181
 C328 C 0.25245 0.12456 -0.03725
 C329 C 0.24569 0.12481 0.00381
 C330 C 0.24907 0.10341 -0.01642
 C331 C 0.27465 0.12506 0.00925
 C332 C 0.27834 0.10366 -0.01129
 C333 C 0.30130 0.12479 -0.05165
 C334 C 0.31766 0.12476 -0.06799
 C335 C 0.22579 0.12481 0.02365
 C336 C 0.20942 0.12480 0.03996
 H337 H 0.23637 0.16336 -0.01872
 H338 H 0.29016 0.16381 -0.00981
 H339 H 0.24355 0.12435 -0.05659
 H340 H 0.23694 0.08581 -0.01819
 H341 H 0.28355 0.12527 0.02859
 H342 H 0.29072 0.08626 -0.00928
 C343 C 0.75534 0.64159 0.52082
 C344 C 0.72679 0.64871 0.51653
 C345 C 0.71895 0.62476 0.53219
 C346 C 0.74719 0.61763 0.53679
 C347 C 0.75457 0.62484 0.49646
 C348 C 0.74673 0.60088 0.51211
 C349 C 0.72632 0.63196 0.49186
 C350 C 0.71818 0.60800 0.50783
 C351 C 0.69911 0.62472 0.55208
 C352 C 0.68277 0.62471 0.56843
 C353 C 0.77440 0.62489 0.47655
 C354 C 0.79070 0.62495 0.46017
 H355 H 0.77084 0.65541 0.52594
 H356 H 0.71837 0.66838 0.51857
 H357 H 0.75555 0.61174 0.55548
 H358 H 0.75515 0.58121 0.51007
 H359 H 0.71796 0.63785 0.47317
 H360 H 0.70268 0.59419 0.50270
 C361 C 0.74118 0.37156 0.02445
 C362 C 0.76372 0.35204 0.02607
 C363 C 0.78210 0.37471 0.03130
 C364 C 0.75986 0.39423 0.02999
 C365 C 0.74642 0.37477 -0.00437
 C366 C 0.76480 0.39745 0.00086
 C367 C 0.76866 0.35526 -0.00307
 C368 C 0.78734 0.37793 0.00247
 C369 C 0.80196 0.37468 0.05116
 C370 C 0.81830 0.37466 0.06751
 C371 C 0.72655 0.37480 -0.02424
 C372 C 0.71020 0.37483 -0.04057
 H373 H 0.72197 0.36894 0.03327
 H374 H 0.76349 0.33337 0.03665
 H375 H 0.75647 0.41025 0.04381
 H376 H 0.76503 0.41612 -0.00973
 H377 H 0.77205 0.33923 -0.01688
 H378 H 0.80655 0.38055 -0.00634
 C379 C 0.23164 0.89442 0.50299
 C380 C 0.23658 0.89731 0.47383
 C381 C 0.21805 0.87471 0.46882
 C382 C 0.21280 0.87182 0.49768
 C383 C 0.25374 0.87477 0.50448
 C384 C 0.23521 0.85217 0.49947
 C385 C 0.25900 0.87766 0.47562
 C386 C 0.24016 0.85506 0.47031
 C387 C 0.19818 0.87469 0.44897
 C388 C 0.18183 0.87468 0.43263
 C389 C 0.27362 0.87479 0.52434
 C390 C 0.28997 0.87482 0.54067
 H391 H 0.22836 0.91060 0.51665
 H392 H 0.23692 0.91588 0.46306
 H393 H 0.19358 0.86941 0.50653
 H394 H 0.23487 0.83360 0.51024
 H395 H 0.27822 0.88007 0.46677
 H396 H 0.24344 0.83888 0.45665
   
