data_POSCAR
  _audit_creation_date              2014-09-24
  _audit_creation_method            'ToBaCCo'
  _symmetry_space_group_name_H-M    'P1'
  _symmetry_Int_Tables_number       1
  _symmetry_cell_setting            triclinic
  loop_
  _symmetry_equiv_pos_as_xyz
 x,y,z
_cell_length_a 26.8903
_cell_length_b 19.8837
_cell_length_c 23.9238
_cell_angle_alpha 89.909600
_cell_angle_beta 90.047100
_cell_angle_gamma 90.154900
loop_
  _atom_site_label
  _atom_site_type_symbol
  _atom_site_fract_x
  _atom_site_fract_y
  _atom_site_fract_z
C1 C 0.15183 0.25351 0.15040
 C2 C 0.16436 0.19302 0.17740
 C3 C 0.20176 0.19427 0.21870
 C4 C 0.22901 0.25344 0.23003
 C5 C 0.21627 0.31271 0.20101
 C6 C 0.17636 0.31385 0.16316
 C7 C 0.27031 0.25350 0.27228
 C8 C 0.28293 0.31268 0.30148
 C9 C 0.32272 0.31386 0.33950
 C10 C 0.34726 0.25367 0.35217
 C11 C 0.33491 0.19329 0.32494
 C12 C 0.29762 0.19449 0.28352
 H13 H 0.12188 0.25414 0.12006
 H14 H 0.20981 0.14925 0.24212
 H15 H 0.23752 0.35811 0.20760
 H16 H 0.26167 0.35796 0.29497
 H17 H 0.37711 0.25434 0.38263
 H18 H 0.28968 0.14953 0.25998
 C19 C 0.84882 0.25409 0.15439
 C20 C 0.83570 0.31435 0.18075
 C21 C 0.79740 0.31377 0.22071
 C22 C 0.77012 0.25453 0.23202
 C23 C 0.78335 0.19513 0.20349
 C24 C 0.82386 0.19391 0.16651
 C25 C 0.72833 0.25440 0.27365
 C26 C 0.71511 0.19491 0.30235
 C27 C 0.67485 0.19338 0.33996
 C28 C 0.65045 0.25391 0.35229
 C29 C 0.66342 0.31411 0.32540
 C30 C 0.70130 0.31352 0.28500
 H31 H 0.87945 0.25379 0.12497
 H32 H 0.78897 0.35953 0.24287
 H33 H 0.76198 0.14971 0.20957
 H34 H 0.73662 0.14992 0.29594
 H35 H 0.62021 0.25413 0.38221
 H36 H 0.70966 0.35923 0.26253
 C37 C 0.64982 0.75572 0.65362
 C38 C 0.67477 0.69572 0.66585
 C39 C 0.71508 0.69721 0.70321
 C40 C 0.72812 0.75667 0.73190
 C41 C 0.70085 0.81568 0.72047
 C42 C 0.66276 0.81605 0.68022
 C43 C 0.76962 0.75686 0.77394
 C44 C 0.79677 0.81612 0.78530
 C45 C 0.83417 0.81742 0.82662
 C46 C 0.84679 0.75696 0.85358
 C47 C 0.82235 0.69658 0.84082
 C48 C 0.78244 0.69763 0.80297
 H49 H 0.61936 0.75524 0.62394
 H50 H 0.73643 0.65197 0.70955
 H51 H 0.70913 0.86141 0.74285
 H52 H 0.78865 0.86117 0.76196
 H53 H 0.87673 0.75638 0.88393
 H54 H 0.76124 0.65217 0.79649
 C55 C 0.34736 0.75577 0.65250
 C56 C 0.32236 0.81577 0.66438
 C57 C 0.28185 0.81427 0.70140
 C58 C 0.26865 0.75479 0.73010
 C59 C 0.29596 0.69578 0.71903
 C60 C 0.33428 0.69543 0.67911
 C61 C 0.22701 0.75462 0.77188
 C62 C 0.19984 0.69536 0.78329
 C63 C 0.16246 0.69401 0.82457
 C64 C 0.14986 0.75445 0.85141
 C65 C 0.17427 0.81485 0.83851
 C66 C 0.21415 0.81385 0.80072
 H67 H 0.37799 0.75627 0.62310
 H68 H 0.26049 0.85952 0.70746
 H69 H 0.28757 0.65003 0.74144
 H70 H 0.20799 0.65030 0.76010
 H71 H 0.11995 0.75500 0.88174
 H72 H 0.23534 0.85933 0.79421
 O73 O 0.95655 0.02647 -0.07165
 O74 O 1.04415 0.08418 0.03654
 O75 O 1.05331 0.02731 -0.06074
 O76 O 0.94836 0.08253 0.02656
 O77 O 0.94494 -0.01817 0.06560
 O78 O 1.04988 -0.07334 -0.02161
 O79 O 1.04173 -0.01625 0.07616
 O80 O 0.95412 -0.07400 -0.03211
 Cu81 Cu 1.00085 0.06516 -0.02145
 Cu82 Cu 0.99740 -0.05548 0.02613
 C83 C 0.94051 -0.03365 -0.07029
 C84 C 1.05777 0.04390 0.07474
 C85 C 1.06927 -0.03252 -0.05615
 C86 C 0.92897 0.04163 0.06106
 O87 O 0.54374 0.42606 0.46790
 O88 O 0.45728 0.48347 0.57703
 O89 O 0.44795 0.42636 0.47917
 O90 O 0.55379 0.48248 0.56519
 O91 O 0.55001 0.58299 0.52589
 O92 O 0.44417 0.52685 0.43985
 O93 O 0.45427 0.58359 0.53695
 O94 O 0.54074 0.52619 0.42785
 Cu95 Cu 0.50097 0.44455 0.52642
 Cu96 Cu 0.49703 0.56493 0.47850
 C97 C 0.55683 0.46621 0.42931
 C98 C 0.44120 0.54346 0.57557
 C99 C 0.42821 0.46695 0.44475
 C100 C 0.56970 0.54240 0.56036
 O101 O 0.04086 0.48467 -0.07249
 O102 O -0.04539 0.42696 0.03711
 O103 O -0.05577 0.48364 -0.06017
 O104 O 0.05023 0.42694 0.02507
 O105 O 0.05488 0.52742 0.06409
 O106 O -0.05157 0.58390 -0.02070
 O107 O -0.04157 0.52687 0.07724
 O108 O 0.04406 0.58490 -0.03287
 Cu109 Cu -0.00289 0.44556 -0.02177
 Cu110 Cu 0.00179 0.56579 0.02606
 C111 C 0.05704 0.54474 -0.07132
 C112 C -0.05796 0.46691 0.07590
 C113 C -0.07158 0.54344 -0.05505
 C114 C 0.07045 0.46745 0.05920
 O115 O 0.45428 1.08529 0.46658
 O116 O 0.54038 1.02802 0.57641
 O117 O 0.54994 1.08466 0.47820
 O118 O 0.44389 1.02890 0.56397
 O119 O 0.44782 0.92824 0.52524
 O120 O 0.55388 0.98400 0.43945
 O121 O 0.54346 0.92778 0.53682
 O122 O 0.45713 0.98492 0.42721
 Cu123 Cu 0.49686 1.06678 0.52535
 Cu124 Cu 0.50086 0.94621 0.47805
 C125 C 0.44105 1.04492 0.42830
 C126 C 0.55642 0.96800 0.57532
 C127 C 0.56981 1.04391 0.44415
 C128 C 0.42801 0.96895 0.55937
 C129 C 1.13943 0.13322 0.16230
 C130 C 1.14534 0.07039 0.18673
 C131 C 1.11476 0.02817 0.15762
 C132 C 1.09272 0.06783 0.11749
 O133 O 1.10737 0.13115 0.12027
 H134 H 1.16885 0.05605 0.22140
 H135 H 1.10962 -0.02523 0.16438
 C136 C 0.65652 0.63187 0.64102
 C137 C 0.67028 0.56784 0.65762
 C138 C 0.64019 0.52510 0.62843
 C139 C 0.61054 0.56598 0.59606
 O140 O 0.62030 0.63046 0.60353
 H141 H 0.69734 0.55353 0.68887
 H142 H 0.63911 0.47080 0.63142
 C143 C -0.13761 0.37701 0.16515
 C144 C -0.13993 0.43801 0.19280
 C145 C -0.11001 0.48062 0.16308
 C146 C -0.09183 0.44261 0.11958
 O147 O -0.10835 0.38008 0.12079
 H148 H -0.16051 0.45038 0.23018
 H149 H -0.10242 0.53300 0.17196
 C150 C 0.34078 0.87962 0.63961
 C151 C 0.32705 0.94366 0.65603
 C152 C 0.35731 0.98638 0.62699
 C153 C 0.38704 0.94547 0.59489
 O154 O 0.37716 0.88101 0.60238
 H155 H 0.29987 0.95797 0.68707
 H156 H 0.35845 1.04067 0.62989
 C157 C -0.15921 0.63275 -0.13451
 C158 C -0.17304 0.56868 -0.15107
 C159 C -0.14265 0.52603 -0.12231
 C160 C -0.11274 0.56697 -0.09023
 O161 O -0.12264 0.63142 -0.09744
 H162 H -0.20035 0.55426 -0.18203
 H163 H -0.14156 0.47176 -0.12541
 C164 C 0.35988 1.13368 0.34005
 C165 C 0.35422 1.07092 0.31552
 C166 C 0.38473 1.02888 0.34483
 C167 C 0.40646 1.06860 0.38515
 O168 O 0.39170 1.13175 0.38229
 H169 H 0.33090 1.05652 0.28070
 H170 H 0.38998 0.97556 0.33811
 C171 C 1.15591 -0.12136 -0.13688
 C172 C 1.16926 -0.05725 -0.15397
 C173 C 1.13916 -0.01470 -0.12488
 C174 C 1.10989 -0.05575 -0.09210
 O175 O 1.11990 -0.12016 -0.09921
 H176 H 1.19606 -0.04278 -0.18546
 H177 H 1.13784 0.03955 -0.12816
 C178 C 0.63689 0.37674 0.34084
 C179 C 0.63955 0.43784 0.31317
 C180 C 0.60955 0.48029 0.34262
 C181 C 0.59098 0.44212 0.38598
 O182 O 0.60736 0.37963 0.38496
 H183 H 0.66039 0.45039 0.27594
 H184 H 0.60215 0.53267 0.33362
 C185 C 0.85900 -0.12277 -0.15814
 C186 C 0.85303 -0.05988 -0.18244
 C187 C 0.88356 -0.01771 -0.15319
 C188 C 0.90559 -0.05746 -0.11311
 O189 O 0.89101 -0.12079 -0.11606
 H190 H 0.82954 -0.04549 -0.21710
 H191 H 0.88866 0.03572 -0.15982
 C192 C 0.34098 0.37767 0.36446
 C193 C 0.32727 0.44175 0.34793
 C194 C 0.35751 0.48441 0.37700
 C195 C 0.38721 0.44346 0.40922
 O196 O 0.37733 0.37899 0.40180
 H197 H 0.30015 0.45617 0.31679
 H198 H 0.35865 0.53871 0.37401
 C199 C 0.13770 0.63417 -0.16003
 C200 C 0.14348 0.57135 -0.18434
 C201 C 0.11317 0.52908 -0.15484
 C202 C 0.09145 0.56871 -0.11460
 O203 O 0.10601 0.63205 -0.11771
 H204 H 0.16671 0.55708 -0.21918
 H205 H 0.10806 0.47566 -0.16137
 C206 C 0.65737 1.13293 0.36391
 C207 C 0.67344 1.06853 0.35098
 C208 C 0.64298 1.02607 0.38005
 C209 C 0.61105 1.06726 0.40899
 O210 O 0.61964 1.13165 0.39948
 H211 H 0.70239 1.05333 0.32239
 H212 H 0.64347 0.97165 0.37955
 C213 C 0.15797 0.37778 0.13855
 C214 C 0.17199 0.44180 0.15505
 C215 C 0.14166 0.48458 0.12636
 C216 C 0.11159 0.44377 0.09436
 O217 O 0.12133 0.37927 0.10158
 H218 H 0.19941 0.45612 0.18592
 H219 H 0.14072 0.53886 0.12942
 C220 C 0.63610 0.87855 0.66459
 C221 C 0.63864 0.93964 0.69212
 C222 C 0.60875 0.98209 0.66237
 C223 C 0.59036 0.94391 0.61898
 O224 O 0.60673 0.88142 0.62027
 H225 H 0.65936 0.95221 0.72943
 H226 H 0.60132 1.03447 0.67116
 C227 C 0.84228 0.13020 0.14191
 C228 C 0.82888 0.06606 0.15884
 C229 C 0.85901 0.02360 0.12970
 C230 C 0.88833 0.06474 0.09705
 O231 O 0.87833 0.12911 0.10430
 H232 H 0.80201 0.05157 0.19027
 H233 H 0.86030 -0.03067 0.13286
 C234 C 0.36106 0.63295 0.66390
 C235 C 0.35847 0.57191 0.69166
 C236 C 0.38854 0.52947 0.66230
 C237 C 0.40708 0.56760 0.61890
 O238 O 0.39063 0.63006 0.61981
 H239 H 0.33760 0.55938 0.72887
 H240 H 0.39599 0.47712 0.67135
   
