data_POSCAR
  _audit_creation_date              2014-09-24
  _audit_creation_method            'ToBaCCo'
  _symmetry_space_group_name_H-M    'P1'
  _symmetry_Int_Tables_number       1
  _symmetry_cell_setting            triclinic
  loop_
  _symmetry_equiv_pos_as_xyz
 x,y,z
_cell_length_a 56.8074
_cell_length_b 56.9193
_cell_length_c 21.6989
_cell_angle_alpha 90.038900
_cell_angle_beta 90.018400
_cell_angle_gamma 120.025900
loop_
  _atom_site_label
  _atom_site_type_symbol
  _atom_site_fract_x
  _atom_site_fract_y
  _atom_site_fract_z
C1 C 0.19919 0.49936 0.44410
 C2 C 0.18688 0.49878 0.50027
 C3 C 0.19899 0.49876 0.55633
 C4 C 0.22420 0.49937 0.55686
 C5 C 0.23689 0.49989 0.50013
 C6 C 0.22435 0.49986 0.44344
 C7 C 0.23732 0.50035 0.38781
 C8 C 0.26206 0.50082 0.38778
 C9 C 0.27481 0.50089 0.44334
 C10 C 0.26217 0.50045 0.50007
 C11 C 0.23706 0.49950 0.61243
 C12 C 0.26187 0.50011 0.61236
 C13 C 0.27479 0.50058 0.55671
 C14 C 0.30000 0.50118 0.55591
 C15 C 0.31212 0.50150 0.49969
 C16 C 0.29991 0.50138 0.44380
 H17 H 0.22839 0.50034 0.34371
 H18 H 0.27114 0.50115 0.34369
 H19 H 0.22802 0.49914 0.65659
 H20 H 0.27086 0.50019 0.65641
 H21 H 0.16754 0.49838 0.50036
 H22 H 0.33143 0.50186 0.49930
 C23 C 0.49912 -0.30049 0.44542
 C24 C 0.49916 -0.31262 0.50127
 C25 C 0.49908 -0.30073 0.55757
 C26 C 0.49911 -0.27586 0.55860
 C27 C 0.49916 -0.26329 0.50206
 C28 C 0.49914 -0.27566 0.44519
 C29 C 0.49909 -0.26293 0.38974
 C30 C 0.49905 -0.23849 0.39003
 C31 C 0.49907 -0.22588 0.44579
 C32 C 0.49913 -0.23836 0.50237
 C33 C 0.49902 -0.26326 0.61437
 C34 C 0.49900 -0.23881 0.61467
 C35 C 0.49905 -0.22600 0.55920
 C36 C 0.49897 -0.20117 0.55874
 C37 C 0.49899 -0.18911 0.50268
 C38 C 0.49897 -0.20113 0.44660
 H39 H 0.49907 -0.27180 0.34557
 H40 H 0.49900 -0.22953 0.34607
 H41 H 0.49897 -0.27226 0.65836
 H42 H 0.49892 -0.23000 0.65885
 H43 H 0.49913 -0.33172 0.50077
 H44 H 0.49891 -0.17006 0.50256
 C45 C 1.19996 0.70127 0.55676
 C46 C 1.18784 0.68935 0.50054
 C47 C 1.20008 0.70132 0.44460
 C48 C 1.22511 0.72597 0.44410
 C49 C 1.23767 0.73834 0.50080
 C50 C 1.22508 0.72595 0.55747
 C51 C 1.23797 0.73854 0.61309
 C52 C 1.26271 0.76279 0.61311
 C53 C 1.27553 0.77541 0.55750
 C54 C 1.26290 0.76308 0.50079
 C55 C 1.23790 0.73853 0.38850
 C56 C 1.26261 0.76279 0.38847
 C57 C 1.27549 0.77543 0.44407
 C58 C 1.30064 0.80006 0.44469
 C59 C 1.31281 0.81200 0.50081
 C60 C 1.30067 0.80004 0.55688
 H61 H 1.22901 0.72971 0.65719
 H62 H 1.27174 0.77159 0.65723
 H63 H 1.22889 0.72966 0.34442
 H64 H 1.27157 0.77160 0.34435
 H65 H 1.16859 0.67037 0.50018
 H66 H 1.33213 0.83094 0.50086
 C67 C 0.70085 0.50180 0.55722
 C68 C 0.68898 0.50209 0.50099
 C69 C 0.70097 0.50184 0.44503
 C70 C 0.72561 0.50138 0.44458
 C71 C 0.73793 0.50114 0.50132
 C72 C 0.72553 0.50134 0.55797
 C73 C 0.73811 0.50103 0.61361
 C74 C 0.76235 0.50050 0.61366
 C75 C 0.77497 0.50025 0.55807
 C76 C 0.76265 0.50059 0.50136
 C77 C 0.73819 0.50111 0.38900
 C78 C 0.76243 0.50058 0.38904
 C79 C 0.77497 0.50030 0.44466
 C80 C 0.79953 0.49971 0.44525
 C81 C 0.81148 0.49943 0.50122
 C82 C 0.79957 0.49965 0.55736
 H83 H 0.72927 0.50119 0.65771
 H84 H 0.77116 0.50027 0.65776
 H85 H 0.72936 0.50129 0.34490
 H86 H 0.77127 0.50037 0.34499
 H87 H 0.67000 0.50239 0.50064
 H88 H 0.83038 0.49898 0.50095
 C89 C 0.49764 0.19942 0.55640
 C90 C 0.49760 0.18740 0.50026
 C91 C 0.49749 0.19942 0.44429
 C92 C 0.49739 0.22418 0.44382
 C93 C 0.49741 0.23661 0.50057
 C94 C 0.49752 0.22418 0.55717
 C95 C 0.49757 0.23684 0.61285
 C96 C 0.49756 0.26130 0.61300
 C97 C 0.49753 0.27405 0.55745
 C98 C 0.49742 0.26156 0.50070
 C99 C 0.49735 0.23685 0.38827
 C100 C 0.49738 0.26133 0.38838
 C101 C 0.49744 0.27403 0.44405
 C102 C 0.49758 0.29890 0.44467
 C103 C 0.49763 0.31099 0.50072
 C104 C 0.49764 0.29897 0.55686
 H105 H 0.49764 0.22791 0.65685
 H106 H 0.49762 0.27020 0.65717
 H107 H 0.49733 0.22793 0.34416
 H108 H 0.49737 0.27025 0.34434
 H109 H 0.49779 0.16841 0.50013
 H110 H 0.49774 0.33014 0.50052
 C111 C 0.70187 0.19975 0.44497
 C112 C 0.68991 0.18758 0.50098
 C113 C 0.70184 0.19975 0.55708
 C114 C 0.72651 0.22478 0.55779
 C115 C 0.73891 0.23734 0.50117
 C116 C 0.72654 0.22477 0.44444
 C117 C 0.73910 0.23759 0.38886
 C118 C 0.76336 0.26233 0.38893
 C119 C 0.77592 0.27516 0.44458
 C120 C 0.76362 0.26256 0.50125
 C121 C 0.73904 0.23760 0.61345
 C122 C 0.76330 0.26233 0.61357
 C123 C 0.77593 0.27519 0.55799
 C124 C 0.80052 0.30038 0.55735
 C125 C 0.81242 0.31251 0.50121
 C126 C 0.80045 0.30029 0.44521
 H127 H 0.73025 0.22858 0.34477
 H128 H 0.77219 0.27136 0.34489
 H129 H 0.73016 0.22859 0.65748
 H130 H 0.77209 0.27135 0.65770
 H131 H 0.67090 0.16839 0.50091
 H132 H 0.83130 0.33185 0.50098
 O133 O 0.96327 0.52150 -0.11720
 O134 O 0.93322 0.48630 -0.05606
 C135 C 0.93890 0.50340 -0.10071
 O136 O 1.03886 0.47680 -0.10914
 O137 O 1.06910 0.51416 -0.05329
 C138 C 1.06329 0.49530 -0.09383
 O139 O 0.96253 0.44105 -0.11339
 O140 O 0.93253 0.44726 -0.05410
 C141 C 0.93816 0.43523 -0.09754
 O142 O 1.03909 0.56177 -0.11080
 O143 O 1.06921 0.55477 -0.05407
 C144 C 1.06350 0.56762 -0.09531
 Zr145 Zr 1.00104 0.53043 -0.07860
 O146 O 1.00214 0.53457 -0.17552
 O147 O 0.99998 0.56678 -0.06774
 Zr148 Zr 1.00089 0.47074 -0.07806
 O149 O 1.00333 0.47069 -0.17540
 O150 O 0.99784 0.43212 -0.07444
 O151 O 0.97695 0.48857 -0.09054
 O152 O 1.02443 0.51222 -0.09002
 O153 O 1.03938 0.56257 0.10666
 O154 O 1.06933 0.55508 0.05065
 C155 C 1.06372 0.56825 0.09127
 O156 O 0.96285 0.44178 0.11298
 O157 O 0.93267 0.44753 0.05321
 C158 C 0.93843 0.43580 0.09706
 O159 O 1.03916 0.47755 0.10831
 O160 O 1.06922 0.51448 0.05127
 C161 C 1.06354 0.49598 0.09261
 O162 O 0.96354 0.52237 0.11406
 O163 O 0.93337 0.48659 0.05430
 C164 C 0.93915 0.50403 0.09831
 Zr165 Zr 1.00122 0.53088 0.07579
 O166 O 1.00419 0.53490 0.17278
 O167 O 0.99833 0.56649 0.06914
 Zr168 Zr 1.00111 0.47119 0.07683
 O169 O 1.00404 0.47149 0.17411
 O170 O 0.99801 0.43254 0.07348
 Zr171 Zr 0.96047 0.48051 -0.00079
 Zr172 Zr 1.04173 0.52097 -0.00125
 O173 O 1.02461 0.51273 0.08772
 O174 O 0.97715 0.48908 0.08881
 O175 O 1.02573 0.54737 -0.00167
 O176 O 0.97716 0.45481 -0.00043
 O177 O 0.97703 0.52285 -0.00142
 O178 O 1.02548 0.47857 -0.00067
 H179 H 1.03638 0.51803 -0.12674
 H180 H 0.96460 0.43493 -0.00019
 H181 H 1.03656 0.51878 0.12448
 H182 H 0.96435 0.53004 -0.00158
 H183 H 1.01421 0.43432 -0.05308
 H184 H 1.01469 0.43480 0.05362
 H185 H 0.99003 0.47519 0.19084
 H186 H 0.99374 0.51641 0.19004
 H187 H 1.01479 0.58039 0.04756
 H188 H 0.99946 0.57311 -0.10996
 H189 H 1.00347 0.51921 -0.19266
 H190 H 0.98918 0.47428 -0.19183
 O191 O 0.44090 0.47866 0.11295
 O192 O 0.44644 0.51420 0.05236
 C193 C 0.43478 0.49689 0.09659
 O194 O 0.56136 0.52307 0.10775
 O195 O 0.55426 0.48595 0.05112
 C196 C 0.56723 0.50459 0.09219
 O197 O 0.52090 0.55879 0.11236
 O198 O 0.48485 0.55265 0.05258
 C199 C 0.50238 0.56459 0.09639
 O200 O 0.47643 0.43815 0.10727
 O201 O 0.51375 0.44542 0.05090
 C202 C 0.49505 0.43241 0.09185
 Zr203 Zr 0.46982 0.46953 0.07537
 O204 O 0.46629 0.46510 0.17220
 O205 O 0.43237 0.43319 0.06379
 Zr206 Zr 0.52960 0.52933 0.07639
 O207 O 0.53187 0.52907 0.17373
 O208 O 0.56525 0.56797 0.07321
 O209 O 0.48770 0.51133 0.08821
 O210 O 0.51146 0.48777 0.08744
 O211 O 0.47660 0.43819 -0.11051
 O212 O 0.51390 0.44552 -0.05395
 C213 C 0.49522 0.43248 -0.09497
 O214 O 0.52118 0.55900 -0.11457
 O215 O 0.48501 0.55278 -0.05517
 C216 C 0.50264 0.56478 -0.09868
 O217 O 0.56161 0.52322 -0.10975
 O218 O 0.55436 0.48598 -0.05350
 C219 C 0.56742 0.50469 -0.09430
 O220 O 0.44103 0.47877 -0.11666
 O221 O 0.44659 0.51434 -0.05605
 C222 C 0.43496 0.49705 -0.10042
 Zr223 Zr 0.47002 0.46970 -0.07915
 O224 O 0.46912 0.46605 -0.17620
 O225 O 0.43143 0.43404 -0.07376
 Zr226 Zr 0.52982 0.52949 -0.07873
 O227 O 0.53269 0.52948 -0.17599
 O228 O 0.56543 0.56814 -0.07452
 Zr229 Zr 0.47962 0.51963 -0.00156
 Zr230 Zr 0.52024 0.47939 -0.00141
 O231 O 0.51168 0.48797 -0.09039
 O232 O 0.48794 0.51155 -0.09134
 O233 O 0.47778 0.45293 -0.00182
 O234 O 0.52203 0.54549 -0.00115
 O235 O 0.45365 0.47732 -0.00189
 O236 O 0.54655 0.52180 -0.00109
 H237 H 0.51748 0.48182 0.12411
 H238 H 0.52932 0.56536 -0.00100
 H239 H 0.51769 0.48207 -0.12717
 H240 H 0.43376 0.47018 -0.00202
 H241 H 0.57956 0.56576 0.05258
 H242 H 0.57975 0.56584 -0.05427
 H243 H 0.51502 0.52587 -0.19293
 H244 H 0.47721 0.48461 -0.19306
 H245 H 0.43388 0.42011 -0.05211
 H246 H 0.42528 0.42685 0.10586
 H247 H 0.48336 0.47985 0.18975
 H248 H 0.51390 0.52491 0.18990
 O249 O 0.52107 -0.03752 0.11653
 O250 O 0.48558 -0.06762 0.05590
 C251 C 0.50285 -0.06187 0.10034
 O252 O 0.47643 0.03798 0.10947
 O253 O 0.51369 0.06799 0.05309
 C254 C 0.49498 0.06232 0.09399
 O255 O 0.44057 -0.03821 0.11404
 O256 O 0.44652 -0.06829 0.05455
 C257 C 0.43465 -0.06256 0.09825
 O258 O 0.56148 0.03810 0.10955
 O259 O 0.55427 0.06806 0.05298
 C260 C 0.56727 0.06242 0.09405
 Zr261 Zr 0.52995 0.00009 0.07774
 O262 O 0.53448 0.00143 0.17457
 O263 O 0.56628 -0.00106 0.06622
 Zr264 Zr 0.47013 0.00000 0.07812
 O265 O 0.47022 0.00263 0.17544
 O266 O 0.43144 -0.00302 0.07449
 O267 O 0.48804 -0.02388 0.09031
 O268 O 0.51174 0.02345 0.08952
 O269 O 0.56140 0.03804 -0.10818
 O270 O 0.55416 0.06803 -0.05177
 C271 C 0.56715 0.06237 -0.09278
 O272 O 0.44046 -0.03834 -0.11252
 O273 O 0.44644 -0.06835 -0.05291
 C274 C 0.43454 -0.06268 -0.09660
 O275 O 0.47636 0.03786 -0.10822
 O276 O 0.51363 0.06792 -0.05181
 C277 C 0.49495 0.06221 -0.09282
 O278 O 0.52108 -0.03769 -0.11499
 O279 O 0.48552 -0.06769 -0.05456
 C280 C 0.50281 -0.06202 -0.09888
 Zr281 Zr 0.52987 -0.00001 -0.07656
 O282 O 0.53382 0.00261 -0.17353
 O283 O 0.56556 -0.00287 -0.06981
 Zr284 Zr 0.47003 -0.00009 -0.07671
 O285 O 0.46996 0.00267 -0.17399
 O286 O 0.43134 -0.00315 -0.07276
 Zr287 Zr 0.47963 -0.04052 0.00068
 Zr288 Zr 0.52021 0.04056 0.00067
 O289 O 0.51162 0.02330 -0.08821
 O290 O 0.48792 -0.02402 -0.08901
 O291 O 0.54667 0.02460 0.00063
 O292 O 0.45389 -0.02385 0.00073
 O293 O 0.52205 -0.02404 0.00068
 O294 O 0.47773 0.02441 0.00069
 H295 H 0.51771 0.03541 0.12623
 H296 H 0.43396 -0.03640 0.00078
 H297 H 0.51753 0.03512 -0.12510
 H298 H 0.52922 -0.03673 0.00072
 H299 H 0.43372 0.01352 0.05402
 H300 H 0.43369 0.01355 -0.05292
 H301 H 0.47348 -0.01142 -0.19087
 H302 H 0.51521 -0.00662 -0.19061
 H303 H 0.57971 0.01390 -0.04963
 H304 H 0.57275 -0.00159 0.10832
 H305 H 0.51888 0.00231 0.19195
 H306 H 0.47413 -0.01126 0.19193
 C307 C 1.18610 0.49951 0.39126
 C308 C 1.17387 0.49970 0.34598
 C309 C 1.15833 0.50000 0.29386
 C310 C 1.15672 0.52329 0.28128
 C311 C 1.13942 0.52285 0.23487
 C312 C 1.12364 0.49911 0.20075
 C313 C 1.12581 0.47603 0.21213
 C314 C 1.14314 0.47648 0.25859
 C315 C 1.10340 0.49778 0.15869
 C316 C 1.08562 0.49683 0.12658
 H317 H 1.16820 0.54152 0.30855
 H318 H 1.13769 0.54072 0.22695
 H319 H 1.11351 0.45748 0.18646
 H320 H 1.14408 0.45829 0.26820
 C321 C 0.49879 0.68550 0.38955
 C322 C 0.49844 0.67278 0.34476
 C323 C 0.49802 0.65647 0.29360
 C324 C 0.52191 0.66376 0.26062
 C325 C 0.52224 0.64628 0.21569
 C326 C 0.49868 0.62144 0.20359
 C327 C 0.47459 0.61452 0.23532
 C328 C 0.47426 0.63200 0.28021
 C329 C 0.49980 0.60207 0.16284
 C330 C 0.50092 0.58525 0.13113
 H331 H 0.54046 0.68252 0.27094
 H332 H 0.54103 0.65173 0.19180
 H333 H 0.45631 0.59527 0.22673
 H334 H 0.45574 0.62605 0.30579
 C335 C 0.31399 -0.18696 0.39196
 C336 C 0.32670 -0.17461 0.34713
 C337 C 0.34296 -0.15873 0.29594
 C338 C 0.33545 -0.14242 0.26264
 C339 C 0.35287 -0.12460 0.21766
 C340 C 0.37787 -0.12303 0.20583
 C341 C 0.38502 -0.13991 0.23789
 C342 C 0.36761 -0.15771 0.28283
 C343 C 0.39717 -0.10252 0.16498
 C344 C 0.41396 -0.08462 0.13316
 H345 H 0.31655 -0.14287 0.27273
 H346 H 0.34723 -0.11149 0.19350
 H347 H 0.40440 -0.13870 0.22950
 H348 H 0.37373 -0.17006 0.30865
 C349 C 0.81329 0.49931 0.38963
 C350 C 0.82584 0.49896 0.34519
 C351 C 0.84201 0.49858 0.29462
 C352 C 0.84435 0.47553 0.28433
 C353 C 0.86246 0.47610 0.23996
 C354 C 0.87833 0.49973 0.20570
 C355 C 0.87544 0.52254 0.21474
 C356 C 0.85731 0.52197 0.25915
 C357 C 0.89907 0.50123 0.16517
 C358 C 0.91709 0.50254 0.13343
 H359 H 0.83280 0.45743 0.31187
 H360 H 0.86468 0.45842 0.23369
 H361 H 0.88775 0.54097 0.18880
 H362 H 0.85583 0.53998 0.26710
 C363 C 0.49788 0.31290 0.38886
 C364 C 0.49821 0.32538 0.34368
 C365 C 0.49863 0.34126 0.29168
 C366 C 0.52222 0.36587 0.27846
 C367 C 0.52189 0.38285 0.23235
 C368 C 0.49797 0.37529 0.19920
 C369 C 0.47458 0.35031 0.21116
 C370 C 0.47492 0.33332 0.25731
 C371 C 0.49679 0.39434 0.15754
 C372 C 0.49589 0.41121 0.12567
 H373 H 0.54061 0.37231 0.30504
 H374 H 0.54002 0.40223 0.22392
 H375 H 0.45591 0.34438 0.18621
 H376 H 0.45651 0.31442 0.26744
 C377 C 0.68780 0.18597 0.38922
 C378 C 0.67504 0.17365 0.34439
 C379 C 0.65862 0.15794 0.29312
 C380 C 0.66805 0.14523 0.25277
 C381 C 0.65085 0.12766 0.20702
 C382 C 0.62419 0.12279 0.20152
 C383 C 0.61505 0.13609 0.24081
 C384 C 0.63222 0.15362 0.28647
 C385 C 0.60532 0.10238 0.15978
 C386 C 0.58850 0.08450 0.12790
 H387 H 0.68837 0.14828 0.25780
 H388 H 0.65804 0.11730 0.17724
 H389 H 0.59439 0.13227 0.23739
 H390 H 0.62463 0.16315 0.31773
 C391 C 0.49817 0.18571 -0.38805
 C392 C 0.49881 0.17332 -0.34365
 C393 C 0.49981 0.15742 -0.29328
 C394 C 0.48128 0.14972 -0.24438
 C395 C 0.48087 0.13212 -0.19873
 C396 C 0.49901 0.12222 -0.20197
 C397 C 0.51793 0.13046 -0.25007
 C398 C 0.51832 0.14799 -0.29556
 C399 C 0.49711 0.10199 -0.15931
 C400 C 0.49587 0.08421 -0.12694
 H401 H 0.46676 0.15677 -0.24238
 H402 H 0.46604 0.12573 -0.16195
 H403 H 0.53189 0.12276 -0.25332
 H404 H 0.53258 0.15362 -0.33340
 C405 C 0.68762 0.50171 -0.39002
 C406 C 0.67514 0.50152 -0.34489
 C407 C 0.65917 0.50118 -0.29306
 C408 C 0.66715 0.52486 -0.25869
 C409 C 0.65006 0.52525 -0.21274
 C410 C 0.62495 0.50197 -0.20098
 C411 C 0.61736 0.47809 -0.23417
 C412 C 0.63443 0.47770 -0.28006
 C413 C 0.60581 0.50317 -0.15952
 C414 C 0.58880 0.50400 -0.12785
 H415 H 0.68615 0.54319 -0.26865
 H416 H 0.65601 0.54390 -0.18778
 H417 H 0.59787 0.46005 -0.22597
 H418 H 0.62794 0.45935 -0.30669
 C419 C 0.81347 0.31382 -0.38994
 C420 C 0.82579 0.32662 -0.34514
 C421 C 0.84164 0.34302 -0.29403
 C422 C 0.84301 0.36788 -0.28222
 C423 C 0.86085 0.38540 -0.23740
 C424 C 0.87740 0.37815 -0.20418
 C425 C 0.87546 0.35294 -0.21470
 C426 C 0.85761 0.33541 -0.25957
 C427 C 0.89800 0.39754 -0.16357
 C428 C 0.91600 0.41442 -0.13204
 H429 H 0.83094 0.37407 -0.30899
 H430 H 0.86236 0.40495 -0.23003
 H431 H 0.88833 0.34723 -0.18964
 H432 H 0.85689 0.31634 -0.26870
 C433 C 0.49868 -0.18812 -0.38854
 C434 C 0.49836 -0.17559 -0.34403
 C435 C 0.49794 -0.15939 -0.29355
 C436 C 0.52160 -0.14330 -0.25931
 C437 C 0.52204 -0.12510 -0.21529
 C438 C 0.49883 -0.12291 -0.20540
 C439 C 0.47495 -0.13955 -0.23841
 C440 C 0.47451 -0.15774 -0.28238
 C441 C 0.50012 -0.10215 -0.16528
 C442 C 0.50132 -0.08412 -0.13381
 H443 H 0.53990 -0.14422 -0.26795
 H444 H 0.54066 -0.11220 -0.19033
 H445 H 0.45695 -0.13789 -0.23150
 H446 H 0.45618 -0.16989 -0.30900
 C447 C 0.31345 0.50150 -0.39152
 C448 C 0.32631 0.50179 -0.34700
 C449 C 0.34280 0.50207 -0.29633
 C450 C 0.33548 0.47817 -0.26360
 C451 C 0.35311 0.47768 -0.21926
 C452 C 0.37813 0.50107 -0.20752
 C453 C 0.38511 0.52517 -0.23903
 C454 C 0.36748 0.52567 -0.28334
 C455 C 0.39756 0.49979 -0.16710
 C456 C 0.41436 0.49858 -0.13544
 H457 H 0.31656 0.45975 -0.27367
 H458 H 0.34760 0.45888 -0.19551
 H459 H 0.40450 0.54332 -0.23069
 H460 H 0.37347 0.54419 -0.30878
 C461 C 1.18680 0.68808 -0.39049
 C462 C 1.17445 0.67558 -0.34546
 C463 C 1.15875 0.65952 -0.29381
 C464 C 1.14254 0.66709 -0.26014
 C465 C 1.12504 0.64989 -0.21439
 C466 C 1.12371 0.62507 -0.20216
 C467 C 1.14049 0.61789 -0.23468
 C468 C 1.15796 0.63507 -0.28036
 C469 C 1.10339 0.60583 -0.16085
 C470 C 1.08556 0.58885 -0.12916
 H471 H 1.14282 0.68585 -0.27048
 H472 H 1.11197 0.65552 -0.18997
 H473 H 1.13942 0.59862 -0.22610
 H474 H 1.17022 0.62890 -0.30647
 C475 C 0.81259 0.49919 -0.39003
 C476 C 0.82508 0.49876 -0.34554
 C477 C 0.84124 0.49827 -0.29507
 C478 C 0.84330 0.47506 -0.28480
 C479 C 0.86152 0.47552 -0.24083
 C480 C 0.87777 0.49920 -0.20694
 C481 C 0.87514 0.52217 -0.21591
 C482 C 0.85691 0.52170 -0.25993
 C483 C 0.89862 0.50059 -0.16692
 C484 C 0.91673 0.50187 -0.13555
 H485 H 0.83147 0.45691 -0.31213
 H486 H 0.86354 0.45772 -0.23462
 H487 H 0.88775 0.54064 -0.19026
 H488 H 0.85566 0.53984 -0.26788
 C489 C 0.49795 0.31223 -0.39029
 C490 C 0.49829 0.32473 -0.34508
 C491 C 0.49871 0.34068 -0.29317
 C492 C 0.47492 0.33299 -0.25943
 C493 C 0.47460 0.35013 -0.21358
 C494 C 0.49808 0.37500 -0.20130
 C495 C 0.52208 0.38230 -0.23379
 C496 C 0.52240 0.36517 -0.27960
 C497 C 0.49692 0.39422 -0.16009
 C498 C 0.49604 0.41120 -0.12854
 H499 H 0.45643 0.31419 -0.26986
 H500 H 0.45586 0.34441 -0.18917
 H501 H 0.54028 0.40161 -0.22514
 H502 H 0.54085 0.37143 -0.30574
 C503 C 0.68772 0.18598 -0.38730
 C504 C 0.67488 0.17365 -0.34263
 C505 C 0.65832 0.15791 -0.29165
 C506 C 0.66814 0.14626 -0.24933
 C507 C 0.65090 0.12867 -0.20374
 C508 C 0.62382 0.12271 -0.20039
 C509 C 0.61427 0.13495 -0.24168
 C510 C 0.63147 0.15250 -0.28717
 C511 C 0.60506 0.10230 -0.15862
 C512 C 0.58831 0.08443 -0.12670
 H513 H 0.68882 0.15016 -0.25265
 H514 H 0.65843 0.11913 -0.17235
 H515 H 0.59330 0.13029 -0.23991
 H516 H 0.62360 0.16121 -0.31996
 C517 C 1.18564 0.49815 -0.39072
 C518 C 1.17321 0.49760 -0.34522
 C519 C 1.15743 0.49698 -0.29275
 C520 C 1.16214 0.52128 -0.26552
 C521 C 1.14482 0.52087 -0.21918
 C522 C 1.12276 0.49614 -0.19987
 C523 C 1.11855 0.47178 -0.22580
 C524 C 1.13586 0.47220 -0.27212
 C525 C 1.10284 0.49590 -0.15856
 C526 C 1.08524 0.49564 -0.12708
 H527 H 1.17864 0.54056 -0.28145
 H528 H 1.14808 0.53985 -0.19996
 H529 H 1.10137 0.45257 -0.21173
 H530 H 1.13190 0.45330 -0.29319
 C531 C 0.49870 0.68583 -0.38993
 C532 C 0.49826 0.67302 -0.34531
 C533 C 0.49770 0.65656 -0.29447
 C534 C 0.47459 0.63114 -0.28461
 C535 C 0.47500 0.61364 -0.24000
 C536 C 0.49852 0.62150 -0.20505
 C537 C 0.52138 0.64725 -0.21360
 C538 C 0.52097 0.66476 -0.25826
 C539 C 0.49995 0.60226 -0.16459
 C540 C 0.50119 0.58548 -0.13315
 H541 H 0.45658 0.62451 -0.31272
 H542 H 0.45729 0.59369 -0.23413
 H543 H 0.53974 0.65343 -0.18714
 H544 H 0.53902 0.68428 -0.26585
 C545 C 0.31405 -0.18702 -0.39037
 C546 C 0.32673 -0.17475 -0.34544
 C547 C 0.34298 -0.15897 -0.29413
 C548 C 0.36801 -0.15732 -0.28234
 C549 C 0.38539 -0.13953 -0.23729
 C550 C 0.37780 -0.12331 -0.20384
 C551 C 0.35242 -0.12554 -0.21431
 C552 C 0.33503 -0.14335 -0.25941
 C553 C 0.39704 -0.10273 -0.16304
 C554 C 0.41382 -0.08477 -0.13134
 H555 H 0.37445 -0.16913 -0.30930
 H556 H 0.40507 -0.13779 -0.22994
 H557 H 0.34646 -0.11293 -0.18904
 H558 H 0.31581 -0.14430 -0.26851
 C559 C 0.49861 -0.18733 0.39110
 C560 C 0.49821 -0.17483 0.34669
 C561 C 0.49768 -0.15877 0.29617
 C562 C 0.52089 -0.14381 0.25981
 C563 C 0.52135 -0.12576 0.21546
 C564 C 0.49860 -0.12261 0.20739
 C565 C 0.47513 -0.13815 0.24251
 C566 C 0.47468 -0.15619 0.28680
 C567 C 0.50005 -0.10191 0.16698
 C568 C 0.50133 -0.08391 0.13536
 H569 H 0.53887 -0.14549 0.26702
 H570 H 0.53966 -0.11370 0.18883
 H571 H 0.45751 -0.13573 0.23697
 H572 H 0.45671 -0.16748 0.31503
 C573 C 0.31395 0.50169 0.38807
 C574 C 0.32662 0.50186 0.34337
 C575 C 0.34278 0.50190 0.29236
 C576 C 0.36663 0.52583 0.27643
 C577 C 0.38411 0.52525 0.23189
 C578 C 0.37781 0.50074 0.20312
 C579 C 0.35357 0.47697 0.21773
 C580 C 0.33609 0.47755 0.26228
 C581 C 0.39726 0.49952 0.16281
 C582 C 0.41411 0.49835 0.13133
 H583 H 0.37211 0.54472 0.29981
 H584 H 0.40291 0.54370 0.22131
 H585 H 0.34862 0.45788 0.19612
 H586 H 0.31783 0.45889 0.27465
 C587 C 1.18629 0.68744 0.38871
 C588 C 1.17409 0.67507 0.34340
 C589 C 1.15861 0.65936 0.29118
 C590 C 1.15796 0.63506 0.27667
 C591 C 1.14066 0.61820 0.23029
 C592 C 1.12395 0.62557 0.19817
 C593 C 1.12516 0.65025 0.21142
 C594 C 1.14248 0.66713 0.25785
 C595 C 1.10367 0.60652 0.15650
 C596 C 1.08584 0.58958 0.12477
 H597 H 1.17018 0.62874 0.30247
 H598 H 1.13966 0.59901 0.22091
 H599 H 1.11210 0.65601 0.18732
 H600 H 1.14268 0.68579 0.26900
 C601 C 0.49780 0.18571 0.38849
 C602 C 0.49822 0.17344 0.34359
 C603 C 0.49894 0.15780 0.29226
 C604 C 0.52117 0.15375 0.28534
 C605 C 0.52084 0.13625 0.23974
 C606 C 0.49827 0.12269 0.20076
 C607 C 0.47634 0.12731 0.20647
 C608 C 0.47668 0.14485 0.25218
 C609 C 0.49676 0.10226 0.15926
 C610 C 0.49575 0.08438 0.12760
 H611 H 0.53839 0.16348 0.31639
 H612 H 0.53778 0.13262 0.23616
 H613 H 0.45869 0.11675 0.17692
 H614 H 0.45930 0.14770 0.25740
 C615 C 0.68708 0.50174 0.38913
 C616 C 0.67462 0.50152 0.34392
 C617 C 0.65871 0.50114 0.29191
 C618 C 0.66676 0.52476 0.25736
 C619 C 0.64973 0.52510 0.21116
 C620 C 0.62462 0.50182 0.19933
 C621 C 0.61695 0.47799 0.23269
 C622 C 0.63396 0.47765 0.27883
 C623 C 0.60552 0.50302 0.15771
 C624 C 0.58857 0.50387 0.12591
 H625 H 0.68577 0.54309 0.26737
 H626 H 0.65574 0.54371 0.18609
 H627 H 0.59746 0.45996 0.22441
 H628 H 0.62743 0.45935 0.30557
 C629 C 0.81410 0.31447 0.38956
 C630 C 0.82643 0.32732 0.34492
 C631 C 0.84227 0.34378 0.29397
 C632 C 0.85803 0.33608 0.25898
 C633 C 0.87584 0.35364 0.21418
 C634 C 0.87793 0.37894 0.20424
 C635 C 0.86158 0.38629 0.23801
 C636 C 0.84379 0.36875 0.28277
 C637 C 0.89844 0.39830 0.16356
 C638 C 0.91636 0.41512 0.13188
 H639 H 0.85718 0.31693 0.26762
 H640 H 0.88854 0.34785 0.18866
 H641 H 0.86321 0.40590 0.23108
 H642 H 0.83187 0.37500 0.30993
   
