data_POSCAR
  _audit_creation_date              2014-09-24
  _audit_creation_method            'ToBaCCo'
  _symmetry_space_group_name_H-M    'P1'
  _symmetry_Int_Tables_number       1
  _symmetry_cell_setting            triclinic
  loop_
  _symmetry_equiv_pos_as_xyz
 x,y,z
_cell_length_a 31.1214
_cell_length_b 31.2370
_cell_length_c 31.2966
_cell_angle_alpha 90.572200
_cell_angle_beta 89.687400
_cell_angle_gamma 88.564800
loop_
  _atom_site_label
  _atom_site_type_symbol
  _atom_site_fract_x
  _atom_site_fract_y
  _atom_site_fract_z
C1 C 0.03694 0.44166 0.18984
 H2 H 0.06335 0.46342 0.18765
 C3 C 0.03908 0.40234 0.16801
 H4 H 0.06710 0.39394 0.14869
 C5 C -0.03108 0.42509 0.21901
 H6 H -0.05793 0.43338 0.23967
 C7 C -0.03028 0.38564 0.19779
 H8 H -0.05677 0.36414 0.20192
 N9 N 0.00214 0.45228 0.21465
 C10 C -0.00547 0.59097 0.23200
 H11 H -0.01106 0.59199 0.26615
 C12 C -0.00322 0.62899 0.20924
 H13 H -0.00738 0.65943 0.22583
 C14 C 0.00774 0.55004 0.16880
 H15 H 0.01219 0.51922 0.15326
 C16 C 0.01028 0.58746 0.14476
 H17 H 0.01665 0.58538 0.11074
 Zn18 Zn 0.00190 0.50374 0.24723
 N19 N 0.00083 0.55256 0.21177
 C20 C 0.08129 0.53581 0.27435
 N21 N 0.05316 0.50359 0.27993
 C22 C 0.06324 0.46950 0.30509
 C23 C 0.10305 0.46693 0.32569
 C24 C 0.12120 0.53453 0.29435
 C25 C -0.08597 0.51340 0.26080
 C26 C -0.12513 0.51225 0.28259
 C27 C -0.08635 0.49818 0.34786
 C28 C -0.04773 0.49964 0.32477
 N29 N -0.04835 0.50637 0.28185
 H30 H 0.07352 0.56204 0.25339
 H31 H 0.04083 0.44378 0.30820
 H32 H 0.11116 0.43943 0.34512
 H33 H 0.14351 0.56007 0.28913
 H34 H -0.08551 0.51871 0.22669
 H35 H -0.15491 0.51695 0.26529
 H36 H -0.08578 0.49190 0.38183
 H37 H -0.01750 0.49442 0.34094
 C38 C 0.00529 0.62726 0.16536
 C39 C 0.00517 0.37402 0.17224
 C40 C -0.12540 0.50401 0.32639
 C41 C 0.13239 0.49967 0.31992
 C42 C 0.02754 0.55604 0.81269
 H43 H 0.05295 0.53208 0.81617
 C44 C 0.02818 0.59398 0.83684
 H45 H 0.05411 0.59935 0.85905
 C46 C -0.03675 0.57925 0.77869
 H47 H -0.06153 0.57410 0.75537
 C48 C -0.03734 0.61740 0.80211
 H49 H -0.06275 0.64111 0.79696
 N50 N -0.00490 0.54925 0.78460
 C51 C -0.01489 0.41215 0.76369
 H52 H -0.01728 0.41251 0.72922
 C53 C -0.01689 0.37357 0.78535
 H54 H -0.02082 0.34398 0.76759
 C55 C -0.00642 0.45035 0.82894
 H56 H -0.00258 0.48039 0.84569
 C57 C -0.00822 0.41228 0.85194
 H58 H -0.00544 0.41294 0.88643
 Zn59 Zn -0.00527 0.49838 0.75117
 N60 N -0.00901 0.44939 0.78553
 C61 C 0.07421 0.46093 0.72600
 N62 N 0.04634 0.49432 0.71856
 C63 C 0.05656 0.52589 0.69088
 C64 C 0.09613 0.52439 0.66930
 C65 C 0.11389 0.45819 0.70513
 C66 C -0.09231 0.49547 0.73998
 C67 C -0.13191 0.49697 0.71959
 C68 C -0.09480 0.50494 0.65209
 C69 C -0.05561 0.50325 0.67394
 N70 N -0.05527 0.49916 0.71720
 H71 H 0.06639 0.43680 0.74900
 H72 H 0.03433 0.55260 0.68621
 H73 H 0.10431 0.54984 0.64769
 H74 H 0.13595 0.43174 0.71176
 H75 H -0.09097 0.49201 0.77431
 H76 H -0.16111 0.49444 0.73838
 H77 H -0.09495 0.50861 0.61768
 H78 H -0.02573 0.50560 0.65647
 C79 C -0.01315 0.37359 0.82978
 C80 C -0.00469 0.62483 0.83145
 C81 C -0.13331 0.50206 0.67530
 C82 C 0.12509 0.49025 0.67672
 C83 C 0.18637 0.03081 0.43687
 H84 H 0.18075 0.05814 0.45784
 C85 C 0.16421 0.02781 0.39818
 H86 H 0.14125 0.05278 0.38938
 C87 C 0.22462 -0.03417 0.42137
 H88 H 0.24903 -0.05773 0.42965
 C89 C 0.20320 -0.03841 0.38262
 H90 H 0.21093 -0.06537 0.36166
 N91 N 0.21603 0.00006 0.44764
 C92 C 0.23973 0.00628 0.58474
 H93 H 0.27447 0.00560 0.58308
 C94 C 0.21910 0.00678 0.62433
 H95 H 0.23796 0.00641 0.65333
 C96 C 0.17275 0.00755 0.54881
 H97 H 0.15498 0.00762 0.51924
 C98 C 0.15073 0.00808 0.58797
 H99 H 0.11592 0.00868 0.58859
 Zn100 Zn 0.24987 0.00693 0.49738
 N101 N 0.21650 0.00714 0.54804
 C102 C 0.26794 0.09108 0.52328
 N103 N 0.27797 0.06022 0.49354
 C104 C 0.30389 0.06870 0.45961
 C105 C 0.32088 0.10955 0.45485
 C106 C 0.28419 0.13208 0.51975
 C107 C 0.26796 -0.07782 0.51182
 C108 C 0.29088 -0.11659 0.51321
 C109 C 0.35531 -0.07936 0.49426
 C110 C 0.33103 -0.04091 0.49333
 N111 N 0.28798 -0.04111 0.50139
 H112 H 0.24626 0.08451 0.54928
 H113 H 0.31055 0.04407 0.43578
 H114 H 0.34121 0.11621 0.42763
 H115 H 0.27561 0.15636 0.54348
 H116 H 0.23372 -0.07703 0.51801
 H117 H 0.27428 -0.14569 0.52071
 H118 H 0.38936 -0.07940 0.48694
 H119 H 0.34630 -0.01134 0.48530
 C120 C 0.17426 0.00788 0.62602
 C121 C 0.17302 -0.00702 0.37071
 C122 C 0.33479 -0.11758 0.50389
 C123 C 0.31064 0.14159 0.48514
 C124 C 0.81191 0.02186 0.56109
 H125 H 0.81515 0.04879 0.53995
 C126 C 0.83371 0.02111 0.60015
 H127 H 0.85404 0.04738 0.60897
 C128 C 0.77996 -0.04434 0.57672
 H129 H 0.75808 -0.06927 0.56833
 C130 C 0.80112 -0.04634 0.61585
 H131 H 0.79578 -0.07301 0.63694
 N132 N 0.78559 -0.01061 0.55016
 C133 C 0.76294 -0.01042 0.41246
 H134 H 0.72857 -0.01462 0.41405
 C135 C 0.78335 -0.00815 0.37287
 H136 H 0.76462 -0.01088 0.34391
 C137 C 0.82901 -0.00115 0.44848
 H138 H 0.84650 0.00166 0.47806
 C139 C 0.85083 0.00134 0.40932
 H140 H 0.88521 0.00603 0.40885
 Zn141 Zn 0.75191 -0.00700 0.49969
 N142 N 0.78570 -0.00629 0.44921
 C143 C 0.72433 0.07449 0.47185
 N144 N 0.71805 0.04456 0.50247
 C145 C 0.69082 0.05263 0.53597
 C146 C 0.66847 0.09208 0.53933
 C147 C 0.70270 0.11406 0.47396
 C148 C 0.74104 -0.09336 0.48686
 C149 C 0.72049 -0.13242 0.48476
 C150 C 0.65289 -0.09511 0.49918
 C151 C 0.67481 -0.05648 0.50095
 N152 N 0.71825 -0.05652 0.49549
 H153 H 0.74694 0.06836 0.44615
 H154 H 0.68706 0.02877 0.56044
 H155 H 0.64717 0.09850 0.56624
 H156 H 0.70836 0.13768 0.44957
 H157 H 0.77550 -0.09237 0.48243
 H158 H 0.73914 -0.16162 0.47868
 H159 H 0.61845 -0.09515 0.50435
 H160 H 0.65728 -0.02679 0.50728
 C161 C 0.82760 -0.00182 0.37118
 C162 C 0.82797 -0.01323 0.62789
 C163 C 0.67612 -0.13342 0.49137
 C164 C 0.67469 0.12310 0.50803
 C165 C 0.55092 0.19115 0.96095
 H166 H 0.52671 0.18984 0.93632
 C167 C 0.58960 0.16778 0.95609
 H168 H 0.59521 0.14812 0.92781
 C169 C 0.57423 0.21970 1.02718
 H170 H 0.56885 0.24082 1.05426
 C171 C 0.61314 0.19692 1.02361
 H172 H 0.63720 0.20017 1.04825
 N173 N 0.54399 0.21641 0.99615
 C174 C 0.40619 0.24085 1.00931
 H175 H 0.40644 0.27539 1.01215
 C176 C 0.36756 0.21951 1.01270
 H177 H 0.33785 0.23772 1.01792
 C178 C 0.44482 0.17500 0.99932
 H179 H 0.47508 0.15787 0.99463
 C180 C 0.40678 0.15230 1.00251
 H181 H 0.40780 0.11768 0.99981
 Zn182 Zn 0.49365 0.25140 0.99968
 N183 N 0.44369 0.21851 1.00230
 C184 C 0.45934 0.28298 0.92241
 N185 N 0.49244 0.28608 0.95045
 C186 C 0.52708 0.31030 0.94162
 C187 C 0.52948 0.33237 0.90305
 C188 C 0.46044 0.30453 0.88362
 C189 C 0.49026 0.26094 1.08713
 C190 C 0.49172 0.28108 1.12696
 C191 C 0.50099 0.34865 1.09143
 C192 C 0.49933 0.32715 1.05204
 N193 N 0.49464 0.28395 1.05076
 H194 H 0.43268 0.26267 0.92933
 H195 H 0.55340 0.31141 0.96401
 H196 H 0.55752 0.35091 0.89583
 H197 H 0.43433 0.30119 0.86116
 H198 H 0.48625 0.22668 1.08506
 H199 H 0.48872 0.26236 1.15574
 H200 H 0.50520 0.38296 1.09246
 H201 H 0.50216 0.34484 1.02270
 C202 C 0.36781 0.17486 1.00918
 C203 C 0.62101 0.17098 0.98769
 C204 C 0.49744 0.32523 1.12916
 C205 C 0.49599 0.32906 0.87365
 C206 C 0.44665 0.80895 0.96706
 H207 H 0.47087 0.81035 0.94221
 C208 C 0.40714 0.83072 0.96219
 H209 H 0.40111 0.84935 0.93373
 C210 C 0.42391 0.78121 1.03350
 H211 H 0.42979 0.76084 1.06059
 C212 C 0.38417 0.80243 1.02997
 H213 H 0.36012 0.79876 1.05477
 N214 N 0.45419 0.78466 1.00225
 C215 C 0.59230 0.75915 1.01310
 H216 H 0.59115 0.72479 1.01676
 C217 C 0.63160 0.77947 1.01502
 H218 H 0.66088 0.76074 1.02004
 C219 C 0.55542 0.82551 1.00214
 H220 H 0.52558 0.84322 0.99742
 C221 C 0.59424 0.84719 1.00383
 H222 H 0.59432 0.88162 1.00012
 Zn223 Zn 0.50482 0.74982 1.00475
 N224 N 0.55533 0.78217 1.00630
 C225 C 0.53857 0.71644 0.92697
 N226 N 0.50554 0.71420 0.95550
 C227 C 0.47078 0.68988 0.94733
 C228 C 0.46823 0.66673 0.90898
 C229 C 0.53733 0.69379 0.88839
 C230 C 0.50855 0.74093 1.09226
 C231 C 0.50819 0.72075 1.13173
 C232 C 0.50020 0.65290 1.09513
 C233 C 0.50072 0.67443 1.05614
 N234 N 0.50433 0.71776 1.05555
 H235 H 0.56533 0.73681 0.93337
 H236 H 0.44454 0.68942 0.97012
 H237 H 0.44013 0.64808 0.90230
 H238 H 0.56340 0.69642 0.86555
 H239 H 0.51181 0.77528 1.09072
 H240 H 0.51120 0.73955 1.16079
 H241 H 0.49700 0.61845 1.09558
 H242 H 0.49811 0.65660 1.02654
 C243 C 0.63265 0.82383 1.01019
 C244 C 0.37547 0.82702 0.99382
 C245 C 0.50377 0.67641 1.13321
 C246 C 0.50170 0.66907 0.87914
 B247 B 1.00069 1.04647 0.02751
 B248 B 0.99850 1.04628 -0.02749
 B249 B 1.04545 1.02840 -0.00107
 B250 B 1.02948 1.00076 0.04350
 B251 B 0.97437 1.00206 0.04570
 B252 B 0.95449 1.02884 0.00080
 B253 B 1.00032 0.95616 -0.02795
 B254 B 1.00260 0.95631 0.02666
 B255 B 0.95591 0.97444 0.00155
 B256 B 0.97163 1.00076 -0.04421
 B257 B 1.02666 1.00154 -0.04632
 B258 B 1.04625 0.97398 -0.00261
 B259 B 0.54676 0.49829 0.47673
 B260 B 0.50341 0.52881 0.45811
 B261 B 0.50191 0.47397 0.45621
 B262 B 0.52639 0.45402 0.50205
 B263 B 0.54348 0.49777 0.53147
 B264 B 0.52896 0.54360 0.50441
 B265 B 0.45332 0.50172 0.52723
 B266 B 0.49708 0.47216 0.54594
 B267 B 0.49854 0.52702 0.54784
 B268 B 0.47379 0.54704 0.50227
 B269 B 0.45680 0.50349 0.47216
 B270 B 0.47097 0.45722 0.49842
 C271 C 1.02880 1.16919 0.04978
 C272 C 1.00579 1.17943 0.08676
 C273 C 0.98349 1.14758 0.10751
 C274 C 0.98307 1.10603 0.09047
 C275 C 1.00691 1.33472 0.15302
 C276 C 1.02809 1.12774 0.03286
 C277 C 1.00663 1.22211 0.10434
 C278 C 1.00723 1.25784 0.11916
 C279 C 1.00747 1.29947 0.13700
 C280 C 1.00347 1.09470 0.05136
 H281 H 1.04729 1.19325 0.03373
 H282 H 0.96774 1.15435 0.13789
 H283 H 0.97227 1.08260 0.11184
 H284 H 1.04654 1.12229 0.00398
 C285 C 0.98544 0.84955 0.09596
 C286 C 1.01519 0.82085 0.07792
 C287 C 1.04220 0.83464 0.04563
 C288 C 1.03869 0.87684 0.03116
 C289 C 1.00961 0.66655 0.14225
 C290 C 0.98198 0.89151 0.08142
 C291 C 1.01662 0.77727 0.09246
 C292 C 1.01572 0.74146 0.10639
 C293 C 1.01289 0.70054 0.12476
 C294 C 1.00802 0.90730 0.04818
 H295 H 0.96429 0.83938 0.12136
 H296 H 1.06528 0.81256 0.03074
 H297 H 1.05857 0.88365 0.00431
 H298 H 0.95852 0.90987 0.09796
 C299 C 0.96680 1.16949 -0.04694
 C300 C 0.98997 1.17932 -0.08341
 C301 C 1.01260 1.14691 -0.10526
 C302 C 1.01363 1.10522 -0.08951
 C303 C 0.98674 1.33356 -0.14815
 C304 C 0.96817 1.12785 -0.03129
 C305 C 0.98877 1.22213 -0.09962
 C306 C 0.98787 1.25779 -0.11377
 C307 C 0.98708 1.29902 -0.13150
 C308 C 0.99381 1.09436 -0.05052
 H309 H 0.94782 1.19401 -0.03026
 H310 H 1.02816 1.15343 -0.13549
 H311 H 1.02445 1.08154 -0.11170
 H312 H 0.94964 1.12267 -0.00267
 C313 C 1.02134 0.84866 -0.09869
 C314 C 0.99286 0.82049 -0.08065
 C315 C 0.96557 0.83487 -0.04803
 C316 C 0.96754 0.87711 -0.03313
 C317 C 0.99546 0.66498 -0.14574
 C318 C 1.02324 0.89075 -0.08374
 C319 C 0.99242 0.77692 -0.09579
 C320 C 0.99317 0.74093 -0.10995
 C321 C 0.99459 0.69956 -0.12835
 C322 C 0.99690 0.90707 -0.05003
 H323 H 1.04258 0.83802 -0.12447
 H324 H 0.94338 0.81321 -0.03326
 H325 H 0.94755 0.88434 -0.00608
 H326 H 1.04575 0.90875 -0.10040
 C327 C 1.07364 1.02847 0.15985
 C328 C 1.09038 0.98947 0.17376
 C329 C 1.09023 0.95411 0.14627
 C330 C 1.07280 0.95798 0.10526
 C331 C 1.15338 0.99043 0.32925
 C332 C 1.05639 1.03216 0.11906
 C333 C 1.10747 0.98665 0.21631
 C334 C 1.12153 0.98657 0.25212
 C335 C 1.13827 0.98828 0.29392
 C336 C 1.05539 0.99751 0.08985
 H337 H 1.07343 1.05630 0.18083
 H338 H 1.10332 0.92345 0.15650
 H339 H 1.07402 0.92964 0.08573
 H340 H 1.04388 1.06279 0.11192
 C341 C 1.10053 1.03411 -0.14598
 C342 C 1.08616 1.00736 -0.17844
 C343 C 1.05237 0.98041 -0.17019
 C344 C 1.03404 0.97933 -0.12949
 C345 C 1.15307 1.00867 -0.33301
 C346 C 1.08171 1.03282 -0.10531
 C347 C 1.10431 1.00883 -0.22074
 C348 C 1.11918 1.00929 -0.25636
 C349 C 1.13692 1.00915 -0.29793
 C350 C 1.04944 1.00354 -0.09464
 H351 H 1.12491 1.05737 -0.15248
 H352 H 1.03965 0.96043 -0.19541
 H353 H 1.00755 0.95874 -0.12639
 H354 H 1.08881 1.05902 -0.08428
 C355 C 0.89872 1.03432 0.14622
 C356 C 0.91447 1.00736 0.17800
 C357 C 0.94983 0.98075 0.16912
 C358 C 0.96829 0.98003 0.12845
 C359 C 0.84732 1.00152 0.33241
 C360 C 0.91771 1.03338 0.10551
 C361 C 0.89585 1.00771 0.22022
 C362 C 0.88089 1.00664 0.25581
 C363 C 0.86328 1.00421 0.29736
 C364 C 0.95160 1.00427 0.09415
 H365 H 0.87293 1.05729 0.15326
 H366 H 0.96352 0.96054 0.19376
 H367 H 0.99569 0.95931 0.12482
 H368 H 0.90909 1.05954 0.08501
 C369 C 0.91295 0.95380 -0.14780
 C370 C 0.91112 0.98896 -0.17485
 C371 C 0.92623 1.02795 -0.16043
 C372 C 0.94342 1.03181 -0.11959
 C373 C 0.84755 0.98620 -0.33046
 C374 C 0.93031 0.95783 -0.10676
 C375 C 0.89396 0.98580 -0.21744
 C376 C 0.87974 0.98502 -0.25324
 C377 C 0.86277 0.98545 -0.29506
 C378 C 0.94596 0.99736 -0.09078
 H379 H 0.90120 0.92314 -0.15839
 H380 H 0.92519 1.05563 -0.18105
 H381 H 0.95465 1.06241 -0.11205
 H382 H 0.93031 0.92962 -0.08762
 C383 C 1.17039 1.05307 -0.02066
 C384 C 1.17923 1.08234 0.01151
 C385 C 1.14753 1.09284 0.04153
 C386 C 1.10666 1.07558 0.03790
 C387 C 1.33010 1.15389 0.01155
 C388 C 1.12949 1.03619 -0.02388
 C389 C 1.22090 1.10101 0.01363
 C390 C 1.25570 1.11699 0.01401
 C391 C 1.29609 1.13639 0.01313
 C392 C 1.09451 1.04959 0.00282
 H393 H 1.19532 1.04258 -0.04300
 H394 H 1.15439 1.11408 0.06809
 H395 H 1.08535 1.08336 0.06342
 H396 H 1.12677 1.01111 -0.04704
 C397 C 0.82810 1.05364 0.01896
 C398 C 0.81804 1.08184 -0.01366
 C399 C 0.84980 1.09250 -0.04273
 C400 C 0.89167 1.07606 -0.03810
 C401 C 0.66207 1.14931 -0.01682
 C402 C 0.87001 1.03751 0.02320
 C403 C 0.77505 1.09921 -0.01732
 C404 C 0.73908 1.11417 -0.01885
 C405 C 0.69728 1.13252 -0.01872
 C406 C 0.90462 1.05047 -0.00306
 H407 H 0.80332 1.04319 0.04069
 H408 H 0.84219 1.11311 -0.06944
 H409 H 0.91302 1.08390 -0.06304
 H410 H 0.87374 1.01284 0.04632
 C411 C 1.15097 0.91028 -0.04568
 C412 C 1.17891 0.91211 -0.01114
 C413 C 1.16680 0.93612 0.02476
 C414 C 1.12637 0.95635 0.02674
 C415 C 1.33574 0.84566 -0.01077
 C416 C 1.11045 0.93064 -0.04304
 C417 C 1.22165 0.89357 -0.01382
 C418 C 1.25774 0.87862 -0.01446
 C419 C 1.29998 0.86116 -0.01334
 C420 C 1.09492 0.95073 -0.00528
 H421 H 1.16135 0.89532 -0.07550
 H422 H 1.18951 0.94133 0.05032
 H423 H 1.12286 0.98049 0.05099
 H424 H 1.09464 0.93576 -0.07229
 C425 C 0.85375 0.91167 0.04325
 C426 C 0.82608 0.91308 0.00844
 C427 C 0.83724 0.93688 -0.02705
 C428 C 0.87666 0.95713 -0.02840
 C429 C 0.67334 0.84471 0.01114
 C430 C 0.89324 0.93206 0.04122
 C431 C 0.78436 0.89434 0.01060
 C432 C 0.74920 0.87902 0.01146
 C433 C 0.70809 0.86093 0.01158
 C434 C 0.90816 0.95167 0.00376
 H435 H 0.84386 0.89699 0.07282
 H436 H 0.81448 0.94187 -0.05272
 H437 H 0.87917 0.98112 -0.05228
 H438 H 0.90846 0.93757 0.07070
 C439 C 0.67251 0.51392 0.45774
 C440 C 0.68089 0.49182 0.41972
 C441 C 0.64731 0.47187 0.39881
 C442 C 0.60568 0.47397 0.41602
 C443 C 0.83412 0.50049 0.34853
 C444 C 0.63095 0.51610 0.47467
 C445 C 0.72320 0.49257 0.40082
 C446 C 0.75851 0.49441 0.38492
 C447 C 0.79955 0.49751 0.36577
 C448 C 0.59582 0.49589 0.45494
 H449 H 0.69792 0.53074 0.47383
 H450 H 0.65295 0.45567 0.36844
 H451 H 0.58138 0.46101 0.39655
 H452 H 0.62679 0.53647 0.50199
 C453 C 0.34400 0.53869 0.42117
 C454 C 0.33103 0.50115 0.40131
 C455 C 0.35914 0.46580 0.39976
 C456 C 0.39910 0.46747 0.41981
 C457 C 0.17458 0.49732 0.33859
 C458 C 0.38395 0.54017 0.44117
 C459 C 0.28849 0.49875 0.38368
 C460 C 0.25256 0.49737 0.36957
 C461 C 0.21039 0.49673 0.35315
 C462 C 0.41222 0.50412 0.44303
 H463 H 0.32281 0.56674 0.42210
 H464 H 0.34996 0.43654 0.38374
 H465 H 0.41901 0.43893 0.41735
 H466 H 0.39111 0.56992 0.45646
 C467 C 0.64476 0.53858 0.59613
 C468 C 0.67262 0.50301 0.59504
 C469 C 0.65852 0.46460 0.57810
 C470 C 0.61749 0.46214 0.56075
 C471 C 0.82938 0.50399 0.65638
 C472 C 0.60364 0.53592 0.57865
 C473 C 0.71571 0.50540 0.61108
 C474 C 0.75192 0.50598 0.62442
 C475 C 0.79404 0.50534 0.64083
 C476 C 0.58879 0.49780 0.55923
 H477 H 0.65492 0.56859 0.60993
 H478 H 0.67954 0.43639 0.57769
 H479 H 0.60978 0.43173 0.54869
 H480 H 0.58386 0.56425 0.58059
 C481 C 0.32926 0.52097 0.55964
 C482 C 0.32154 0.48815 0.58798
 C483 C 0.35380 0.45737 0.59503
 C484 C 0.39407 0.46119 0.57532
 C485 C 0.16697 0.48865 0.65686
 C486 C 0.36948 0.52426 0.54038
 C487 C 0.27971 0.48563 0.60755
 C488 C 0.24420 0.48557 0.62317
 C489 C 0.20245 0.48701 0.64115
 C490 C 0.40496 0.49736 0.55043
 H491 H 0.30380 0.54374 0.55155
 H492 H 0.34755 0.42974 0.61455
 H493 H 0.41566 0.43378 0.57741
 H494 H 0.37099 0.54785 0.51681
 C495 C 0.46823 0.59615 0.35546
 C496 C 0.50343 0.59081 0.32824
 C497 C 0.53997 0.56917 0.34268
 C498 C 0.54078 0.55197 0.38365
 C499 C 0.50293 0.65564 0.17397
 C500 C 0.46938 0.57877 0.39640
 C501 C 0.50246 0.60785 0.28575
 C502 C 0.50220 0.62223 0.25019
 C503 C 0.50243 0.63968 0.20884
 C504 C 0.50540 0.55534 0.41211
 H505 H 0.43971 0.61365 0.34509
 H506 H 0.56801 0.56530 0.32217
 H507 H 0.57000 0.53678 0.39184
 H508 H 0.44184 0.58498 0.41551
 C509 C 0.52353 0.54777 0.67233
 C510 C 0.49690 0.58262 0.68282
 C511 C 0.47267 0.60210 0.65096
 C512 C 0.47432 0.58600 0.60913
 C513 C 0.49884 0.64824 0.83809
 C514 C 0.52487 0.53186 0.63051
 C515 C 0.49620 0.59964 0.72570
 C516 C 0.49630 0.61423 0.76148
 C517 C 0.49725 0.63205 0.80304
 C518 C 0.49921 0.54941 0.59705
 H519 H 0.54318 0.53247 0.69655
 H520 H 0.45351 0.63078 0.65804
 H521 H 0.46025 0.60623 0.58647
 H522 H 0.54520 0.50399 0.62597
 C523 C 0.52456 0.39243 0.35841
 C524 C 0.50364 0.41294 0.32482
 C525 C 0.48221 0.45183 0.33230
 C526 C 0.48163 0.47008 0.37308
 C527 C 0.49979 0.34585 0.17032
 C528 C 0.52400 0.41097 0.39930
 C529 C 0.50381 0.39439 0.28261
 C530 C 0.50312 0.37939 0.24703
 C531 C 0.50155 0.36174 0.20546
 C532 C 0.50225 0.45039 0.40837
 H533 H 0.54194 0.36237 0.35296
 H534 H 0.46552 0.46811 0.30659
 H535 H 0.46304 0.49918 0.37629
 H536 H 0.54291 0.39484 0.42259
 C537 C 0.46881 0.44459 0.66770
 C538 C 0.49995 0.41385 0.67808
 C539 C 0.53127 0.40225 0.64795
 C540 C 0.53038 0.42028 0.60723
 C541 C 0.49871 0.34882 0.83241
 C542 C 0.46831 0.46243 0.62702
 C543 C 0.50097 0.39624 0.72038
 C544 C 0.50104 0.38165 0.75589
 C545 C 0.50021 0.36431 0.79734
 C546 C 0.49685 0.44844 0.59374
 H547 H 0.44586 0.45615 0.69156
 H548 H 0.55718 0.38009 0.65623
 H549 H 0.55736 0.41256 0.58749
 H550 H 0.44721 0.48994 0.62327
 C551 C 0.56691 0.66096 0.53395
 C552 C 0.59190 0.67156 0.49883
 C553 C 0.59963 0.64110 0.46671
 C554 C 0.58168 0.60060 0.46948
 C555 C 0.65539 0.82588 0.49156
 C556 C 0.54909 0.62052 0.53648
 C557 C 0.60881 0.71390 0.49568
 C558 C 0.62282 0.74948 0.49376
 C559 C 0.63977 0.79096 0.49226
 C560 C 0.55583 0.58871 0.50454
 H561 H 0.56041 0.68428 0.55918
 H562 H 0.61893 0.64881 0.43905
 H563 H 0.58801 0.57934 0.44333
 H564 H 0.52956 0.61531 0.56355
 C565 C 0.60791 0.35335 0.48674
 C566 C 0.58672 0.32120 0.50841
 C567 C 0.54779 0.33086 0.52876
 C568 C 0.52990 0.37220 0.52693
 C569 C 0.65386 0.16478 0.51085
 C570 C 0.58989 0.39481 0.48495
 C571 C 0.60485 0.27832 0.50999
 C572 C 0.61983 0.24235 0.51107
 C573 C 0.63773 0.20032 0.51158
 C574 C 0.54977 0.40566 0.50431
 H575 H 0.63870 0.34655 0.47149
 H576 H 0.53099 0.30639 0.54600
 H577 H 0.49949 0.37753 0.54313
 H578 H 0.60901 0.41810 0.47001
 C579 C 0.40044 0.65293 0.52560
 C580 C 0.41974 0.68339 0.50020
 C581 C 0.45556 0.67150 0.47579
 C582 C 0.47175 0.62944 0.47668
 C583 C 0.35745 0.84163 0.50292
 C584 C 0.41694 0.61087 0.52644
 C585 C 0.40412 0.72721 0.50072
 C586 C 0.39072 0.76380 0.50131
 C587 C 0.37381 0.80620 0.50214
 C588 C 0.45270 0.59693 0.50140
 H589 H 0.37369 0.66206 0.54635
 H590 H 0.47154 0.69489 0.45637
 H591 H 0.49989 0.62347 0.45754
 H592 H 0.40463 0.59162 0.55151
 C593 C 0.43549 0.33855 0.46708
 C594 C 0.39272 0.33770 0.47959
 C595 C 0.37213 0.37581 0.49266
 C596 C 0.39558 0.41352 0.49617
 C597 C 0.32658 0.18434 0.48112
 C598 C 0.45827 0.37617 0.47095
 C599 C 0.37107 0.29742 0.47874
 C600 C 0.35565 0.26233 0.47856
 C601 C 0.33962 0.22037 0.47930
 C602 C 0.44094 0.41386 0.49044
 H603 H 0.45163 0.30990 0.45456
 H604 H 0.33794 0.37670 0.49941
 H605 H 0.37687 0.44253 0.50056
 H606 H 0.49023 0.37397 0.45953
   
