data_POSCAR
  _audit_creation_date              2014-09-24
  _audit_creation_method            'ToBaCCo'
  _symmetry_space_group_name_H-M    'P1'
  _symmetry_Int_Tables_number       1
  _symmetry_cell_setting            triclinic
  loop_
  _symmetry_equiv_pos_as_xyz
 x,y,z
_cell_length_a 33.3611
_cell_length_b 33.4079
_cell_length_c 68.1258
_cell_angle_alpha 88.071600
_cell_angle_beta 91.267600
_cell_angle_gamma 120.058700
loop_
  _atom_site_label
  _atom_site_type_symbol
  _atom_site_fract_x
  _atom_site_fract_y
  _atom_site_fract_z
C1 C 0.01697 0.07898 0.52660
 H2 H 0.04972 0.07965 0.52653
 C3 C 0.01171 0.10987 0.53805
 H4 H 0.04044 0.13434 0.54691
 C5 C -0.06018 0.04704 0.51474
 H6 H -0.08777 0.02309 0.50536
 C7 C -0.06689 0.07745 0.52599
 H8 H -0.09978 0.07659 0.52538
 N9 N -0.01877 0.04825 0.51534
 C10 C 0.01339 -0.06103 0.50603
 H11 H 0.01428 -0.06045 0.49016
 C12 C 0.01849 -0.09447 0.51686
 H13 H 0.02359 -0.11961 0.50934
 C14 C 0.00348 -0.03037 0.53526
 H15 H -0.00368 -0.00622 0.54236
 C16 C 0.00839 -0.06324 0.54664
 H17 H 0.00552 -0.06396 0.56247
 Zn18 Zn -0.00646 0.01029 0.49950
 N19 N 0.00599 -0.02990 0.51533
 C20 C 0.08523 0.04912 0.48447
 N21 N 0.04508 0.05043 0.48379
 C22 C 0.04108 0.08274 0.47258
 C23 C 0.07823 0.11522 0.46127
 C24 C 0.12333 0.08108 0.47336
 C25 C -0.09736 -0.06013 0.49277
 C26 C -0.13515 -0.09229 0.48186
 C27 C -0.09156 -0.05701 0.45216
 C28 C -0.05461 -0.02552 0.46364
 N29 N -0.05810 -0.02771 0.48356
 H30 H 0.08805 0.02387 0.49381
 H31 H 0.00900 0.08342 0.47259
 H32 H 0.07478 0.14094 0.45246
 H33 H 0.15531 0.08012 0.47404
 H34 H -0.09882 -0.06165 0.50864
 H35 H -0.16590 -0.11847 0.48941
 H36 H -0.08800 -0.05547 0.43632
 H37 H -0.02273 -0.00035 0.45662
 C38 C 0.01560 -0.09577 0.53734
 C39 C -0.03053 0.10917 0.53771
 C40 C -0.13208 -0.09099 0.46136
 C41 C 0.11975 0.11445 0.46170
 C42 C 1.08922 0.03026 0.14003
 H43 H 1.09001 0.06303 0.14011
 C44 C 1.12075 0.02551 0.12864
 H45 H 1.14586 0.05464 0.11984
 C46 C 1.05626 -0.04746 0.15177
 H47 H 1.03163 -0.07549 0.16108
 C48 C 1.08729 -0.05368 0.14058
 H49 H 1.08624 -0.08663 0.14117
 N50 N 1.05767 -0.00599 0.15120
 C51 C 0.94761 0.02557 0.16018
 H52 H 0.94715 0.02558 0.17605
 C53 C 0.91474 0.03113 0.14924
 H54 H 0.88900 0.03570 0.15668
 C55 C 0.98026 0.01736 0.13106
 H56 H 1.00495 0.01068 0.12404
 C57 C 0.94800 0.02277 0.11957
 H58 H 0.94829 0.02074 0.10374
 Zn59 Zn 1.01872 0.00551 0.16693
 N60 N 0.97944 0.01877 0.15099
 C61 C 1.05647 0.09614 0.18217
 N62 N 1.05794 0.05612 0.18274
 C63 C 1.08969 0.05154 0.19398
 C64 C 1.12135 0.08792 0.20547
 C65 C 1.08761 0.13347 0.19345
 C66 C 0.94769 -0.08561 0.17356
 C67 C 0.91492 -0.12387 0.18445
 C68 C 0.94871 -0.08189 0.21416
 C69 C 0.98085 -0.04440 0.20273
 N70 N 0.97971 -0.04688 0.18280
 H71 H 1.03167 0.09944 0.17281
 H72 H 1.09053 0.01959 0.19389
 H73 H 1.14659 0.08399 0.21433
 H74 H 1.08648 0.16533 0.19289
 H75 H 0.94697 -0.08627 0.15769
 H76 H 0.88901 -0.15425 0.17696
 H77 H 0.94924 -0.07935 0.22999
 H78 H 1.00569 -0.01295 0.20978
 C79 C 0.91474 0.02934 0.12876
 C80 C 1.11984 -0.01679 0.12895
 C81 C 0.91523 -0.12181 0.20492
 C82 C 1.12035 0.12926 0.20517
 C83 C 0.04034 0.96151 0.86029
 H84 H 0.00826 0.92874 0.86008
 C85 C 0.07754 0.96602 0.87171
 H86 H 0.07412 0.93672 0.88040
 C87 C 0.08445 1.03943 0.84881
 H88 H 0.08723 1.06763 0.83958
 C89 C 0.12259 1.04541 0.86004
 H90 H 0.15458 1.07836 0.85957
 N91 N 0.04430 0.99797 0.84923
 C92 C -0.09816 0.96628 0.83980
 H93 H -0.09973 0.96656 0.82392
 C94 C -0.13588 0.96047 0.85062
 H95 H -0.16672 0.95597 0.84303
 C96 C -0.05522 0.97404 0.86906
 H97 H -0.02330 0.98066 0.87617
 C98 C -0.09212 0.96837 0.88044
 H99 H -0.08856 0.97014 0.89629
 Zn100 Zn -0.00731 0.98673 0.83334
 N101 N -0.05884 0.97299 0.84911
 C102 C -0.06122 0.89637 0.81773
 N103 N -0.01976 0.93654 0.81736
 C104 C 0.01593 0.94153 0.80625
 C105 C 0.01060 0.90541 0.79474
 C106 C -0.06800 0.85928 0.80641
 C107 C 0.01254 1.07794 0.82704
 C108 C 0.01763 1.11654 0.81629
 C109 C 0.00743 1.07537 0.78640
 C110 C 0.00252 1.03752 0.79771
 N111 N 0.00509 1.03945 0.81766
 H112 H -0.08877 0.89275 0.82699
 H113 H 0.04871 0.97358 0.80650
 H114 H 0.03930 0.90964 0.78602
 H115 H -0.10091 0.82726 0.80685
 H116 H 0.01347 1.07818 0.84292
 H117 H 0.02277 1.14675 0.82388
 H118 H 0.00452 1.07329 0.77055
 H119 H -0.00466 1.00625 0.79053
 C120 C -0.13267 0.96191 0.87112
 C121 C 0.11906 1.00830 0.87155
 C122 C 0.01469 1.11507 0.79579
 C123 C -0.03168 0.86389 0.79486
 C124 C 0.50706 -0.00455 0.00963
 C125 C 0.50541 -0.00575 -0.01037
 C126 C 0.46912 -0.00156 -0.02180
 C127 C 0.53978 -0.01134 -0.02173
 C128 C 0.54819 0.00100 0.02088
 C129 C 0.46782 -0.00862 0.02119
 C130 C 0.44302 -0.03403 -0.03611
 C131 C 0.40896 -0.03019 -0.04693
 C132 C 0.40088 0.00633 -0.04367
 C133 C 0.42717 0.03916 -0.02961
 C134 C 0.46128 0.03540 -0.01879
 C135 C 0.54834 -0.04777 -0.01718
 C136 C 0.58043 -0.05302 -0.02803
 C137 C 0.60395 -0.02222 -0.04363
 C138 C 0.59515 0.01378 -0.04840
 C139 C 0.56312 0.01910 -0.03756
 C140 C 0.59284 0.03741 0.01625
 C141 C 0.63127 0.04270 0.02702
 C142 C 0.62546 0.01196 0.04263
 C143 C 0.58104 -0.02405 0.04746
 C144 C 0.54258 -0.02942 0.03669
 C145 C 0.47589 0.02388 0.03553
 C146 C 0.43917 0.02013 0.04649
 C147 C 0.39408 -0.01632 0.04333
 C148 C 0.38585 -0.04918 0.02924
 C149 C 0.42254 -0.04550 0.01828
 H150 H 0.44872 -0.06259 -0.03873
 H151 H 0.38888 -0.05573 -0.05781
 H152 H 0.42136 0.06768 -0.02704
 H153 H 0.48166 0.06135 -0.00812
 H154 H 0.53003 -0.07221 -0.00530
 H155 H 0.58680 -0.08113 -0.02428
 H156 H 0.55681 0.04721 -0.04138
 H157 H 0.59785 0.06183 0.00438
 H158 H 0.66546 0.07082 0.02323
 H159 H 0.57615 -0.04796 0.05955
 H160 H 0.50846 -0.05751 0.04058
 H161 H 0.51054 0.05238 0.03808
 H162 H 0.44593 0.04568 0.05739
 H163 H 0.35113 -0.07764 0.02674
 H164 H 0.41568 -0.07146 0.00758
 H165 H 0.61309 0.03774 -0.06048
 C166 C -0.01711 0.49275 0.67641
 C167 C -0.01697 0.49424 0.65639
 C168 C -0.02160 0.45500 0.64494
 C169 C -0.01184 0.53533 0.64502
 C170 C -0.02190 0.52729 0.68783
 C171 C -0.01212 0.45673 0.68782
 C172 C 0.01009 0.46307 0.62997
 C173 C 0.00588 0.42636 0.61913
 C174 C -0.03024 0.38127 0.62301
 C175 C -0.06232 0.37304 0.63773
 C176 C -0.05818 0.40972 0.64857
 C177 C 0.02502 0.57987 0.64896
 C178 C 0.02989 0.61829 0.63811
 C179 C -0.00173 0.61258 0.62309
 C180 C -0.03818 0.56826 0.61893
 C181 C -0.04312 0.52980 0.62978
 C182 C -0.05846 0.53598 0.68392
 C183 C -0.06275 0.56845 0.69473
 C184 C -0.03085 0.59225 0.70967
 C185 C 0.00525 0.58329 0.71382
 C186 C 0.00962 0.55086 0.70301
 C187 C -0.04358 0.43092 0.70284
 C188 C -0.03874 0.39738 0.71376
 C189 C -0.00223 0.38953 0.70987
 C190 C 0.02955 0.41548 0.69508
 C191 C 0.02479 0.44906 0.68417
 H192 H 0.03836 0.49771 0.62686
 H193 H 0.03083 0.43311 0.60774
 H194 H -0.09053 0.33831 0.64079
 H195 H -0.08354 0.40286 0.65977
 H196 H 0.05010 0.58481 0.66037
 H197 H 0.05836 0.65240 0.64138
 H198 H -0.07157 0.49576 0.62643
 H199 H -0.08369 0.51752 0.67255
 H200 H -0.09094 0.57497 0.69146
 H201 H 0.03008 0.60144 0.72538
 H202 H 0.03787 0.54449 0.70634
 H203 H -0.07206 0.43651 0.70598
 H204 H -0.06345 0.37757 0.72521
 H205 H 0.05807 0.40987 0.69202
 H206 H 0.05000 0.46925 0.67294
 H207 H -0.06277 0.56345 0.60730
 C208 C 0.50700 0.51045 0.34408
 C209 C 0.50850 0.50982 0.32412
 C210 C 0.54953 0.54480 0.31285
 C211 C 0.46917 0.47397 0.31263
 C212 C 0.47079 0.47055 0.35562
 C213 C 0.54141 0.55106 0.35529
 C214 C 0.54377 0.56867 0.29667
 C215 C 0.58213 0.60115 0.28587
 C216 C 0.62660 0.60988 0.29104
 C217 C 0.63257 0.58588 0.30702
 C218 C 0.59423 0.55334 0.31782
 C219 C 0.42392 0.46574 0.31517
 C220 C 0.38713 0.43201 0.30432
 C221 C 0.39522 0.40647 0.29068
 C222 C 0.44030 0.41495 0.28787
 C223 C 0.47712 0.44864 0.29872
 C224 C 0.46297 0.42559 0.35308
 C225 C 0.42879 0.38823 0.36393
 C226 C 0.40240 0.39545 0.37755
 C227 C 0.41049 0.44024 0.38037
 C228 C 0.44463 0.47763 0.36952
 C229 C 0.56482 0.54482 0.37144
 C230 C 0.59689 0.58280 0.38215
 C231 C 0.60565 0.62735 0.37691
 C232 C 0.58207 0.63377 0.36098
 C233 C 0.54995 0.59582 0.35027
 H234 H 0.50960 0.56238 0.29252
 H235 H 0.57712 0.61946 0.27350
 H236 H 0.66679 0.59219 0.31108
 H237 H 0.59936 0.53463 0.32998
 H238 H 0.41716 0.48553 0.32552
 H239 H 0.35242 0.42588 0.30654
 H240 H 0.51176 0.45464 0.29645
 H241 H 0.48339 0.41949 0.34273
 H242 H 0.42297 0.35375 0.36170
 H243 H 0.39033 0.44622 0.39091
 H244 H 0.45031 0.51204 0.37178
 H245 H 0.55854 0.51060 0.37564
 H246 H 0.61488 0.57744 0.39448
 H247 H 0.58841 0.66806 0.35686
 H248 H 0.53158 0.60130 0.33813
 H249 H 0.44695 0.39544 0.27732
 C250 C -0.03574 0.14192 0.54899
 C251 C -0.03871 0.17018 0.55845
 C252 C -0.04074 0.20477 0.56972
 C253 C -0.04494 0.24031 0.56017
 C254 C -0.04436 0.27536 0.57106
 C255 C -0.03955 0.27502 0.59154
 C256 C -0.03589 0.23919 0.60111
 C257 C -0.03647 0.20414 0.59022
 C258 C -0.03698 0.31211 0.60266
 C259 C -0.03418 0.34350 0.61195
 H260 H -0.04802 0.24126 0.54432
 H261 H -0.04708 0.30297 0.56351
 H262 H -0.03203 0.23866 0.61693
 H263 H -0.03297 0.17695 0.59775
 C264 C 0.87965 0.84065 0.21633
 C265 C 0.84916 0.80979 0.22587
 C266 C 0.81208 0.77364 0.23723
 C267 C 0.81325 0.77514 0.25777
 C268 C 0.77616 0.74120 0.26877
 C269 C 0.73773 0.70564 0.25926
 C270 C 0.73677 0.70388 0.23873
 C271 C 0.77386 0.73782 0.22773
 C272 C 0.69885 0.67164 0.27052
 C273 C 0.66602 0.64340 0.27990
 H274 H 0.84254 0.80280 0.26526
 H275 H 0.77721 0.74294 0.28464
 H276 H 0.70719 0.67659 0.23123
 H277 H 0.77251 0.73644 0.21185
 C278 C 0.15809 0.01281 -0.11723
 C279 C 0.19030 0.01529 -0.10785
 C280 C 0.22816 0.01685 -0.09669
 C281 C 0.22596 0.01299 -0.07615
 C282 C 0.26171 0.01218 -0.06534
 C283 C 0.29977 0.01520 -0.07504
 C284 C 0.30219 0.01954 -0.09557
 C285 C 0.26645 0.02035 -0.10637
 C286 C 0.33570 0.01264 -0.06397
 C287 C 0.36553 0.00997 -0.05471
 H288 H 0.19641 0.01004 -0.06852
 H289 H 0.25943 0.00871 -0.04948
 H290 H 0.33142 0.02180 -0.10321
 H291 H 0.26840 0.02314 -0.12225
 C292 C 0.01741 0.86806 0.54870
 C293 C 0.01776 0.83712 0.55818
 C294 C 0.01695 0.79953 0.56947
 C295 C 0.01635 0.76275 0.55990
 C296 C 0.01357 0.72525 0.57083
 C297 C 0.01137 0.72437 0.59137
 C298 C 0.01237 0.76134 0.60094
 C299 C 0.01514 0.79883 0.59001
 C300 C 0.00715 0.68516 0.60257
 C301 C 0.00323 0.65214 0.61194
 H302 H 0.01754 0.76285 0.54402
 H303 H 0.01274 0.69681 0.56328
 H304 H 0.01060 0.76097 0.61681
 H305 H 0.01540 0.82701 0.59755
 C306 C 0.15369 0.16740 0.21655
 C307 C 0.18236 0.19885 0.22609
 C308 C 0.21736 0.23580 0.23749
 C309 C 0.22328 0.22809 0.25742
 C310 C 0.25868 0.26327 0.26831
 C311 C 0.28833 0.30630 0.25932
 C312 C 0.28213 0.31416 0.23944
 C313 C 0.24672 0.27897 0.22855
 C314 C 0.32574 0.34190 0.27036
 C315 C 0.35732 0.37146 0.27962
 H316 H 0.20090 0.19478 0.26446
 H317 H 0.26323 0.25679 0.28365
 H318 H 0.30492 0.34728 0.23233
 H319 H 0.24257 0.28524 0.21313
 C320 C 0.83229 -0.04035 -0.11812
 C321 C 0.80180 -0.04119 -0.10861
 C322 C 0.76605 -0.04087 -0.09730
 C323 C 0.76916 -0.03991 -0.07676
 C324 C 0.73556 -0.03738 -0.06580
 C325 C 0.69874 -0.03576 -0.07535
 C326 C 0.69539 -0.03717 -0.09588
 C327 C 0.72898 -0.03971 -0.10683
 C328 C 0.66507 -0.03152 -0.06413
 C329 C 0.63711 -0.02748 -0.05477
 H330 H 0.79779 -0.04059 -0.06924
 H331 H 0.73854 -0.03620 -0.04994
 H332 H 0.66712 -0.03584 -0.10341
 H333 H 0.72636 -0.04022 -0.12271
 C334 C 0.15314 -0.02157 0.11770
 C335 C 0.18181 -0.02427 0.10827
 C336 C 0.21683 -0.02608 0.09701
 C337 C 0.25318 -0.02852 0.10659
 C338 C 0.28849 -0.02791 0.09567
 C339 C 0.28761 -0.02484 0.07512
 C340 C 0.25101 -0.02291 0.06553
 C341 C 0.21569 -0.02351 0.07645
 C342 C 0.32484 -0.02244 0.06390
 C343 C 0.35630 -0.01987 0.05452
 H344 H 0.25451 -0.03030 0.12249
 H345 H 0.31669 -0.02931 0.10323
 H346 H 0.25005 -0.02042 0.04964
 H347 H 0.18786 -0.02140 0.06890
 C348 C 0.83427 0.87724 0.45097
 C349 C 0.80373 0.84731 0.44143
 C350 C 0.76794 0.81083 0.43011
 C351 C 0.72975 0.77406 0.43957
 C352 C 0.69611 0.73744 0.42868
 C353 C 0.70054 0.73741 0.40827
 C354 C 0.73848 0.77442 0.39878
 C355 C 0.77212 0.81105 0.40968
 C356 C 0.66683 0.69891 0.39716
 C357 C 0.63884 0.66639 0.38791
 H358 H 0.72629 0.77345 0.45537
 H359 H 0.66697 0.70895 0.43617
 H360 H 0.74230 0.77469 0.38302
 H361 H 0.80162 0.83920 0.40222
 C362 C 0.01651 0.15311 0.78449
 C363 C 0.01688 0.18445 0.77504
 C364 C 0.01609 0.22129 0.76379
 C365 C 0.01798 0.22218 0.74324
 C366 C 0.01527 0.25692 0.73228
 C367 C 0.01063 0.29088 0.74181
 C368 C 0.00913 0.29020 0.76237
 C369 C 0.01184 0.25547 0.77333
 C370 C 0.00649 0.32584 0.73053
 C371 C 0.00265 0.35494 0.72110
 H372 H 0.02108 0.19581 0.73571
 H373 H 0.01639 0.25708 0.71639
 H374 H 0.00546 0.31624 0.76989
 H375 H 0.01016 0.25500 0.78921
 C376 C 0.87910 0.03152 0.11730
 C377 C 0.84857 0.03211 0.10772
 C378 C 0.81142 0.03151 0.09635
 C379 C 0.77448 0.03136 0.10580
 C380 C 0.73730 0.02861 0.09482
 C381 C 0.73690 0.02596 0.07432
 C382 C 0.77406 0.02655 0.06485
 C383 C 0.81124 0.02931 0.07584
 C384 C 0.69791 0.02153 0.06309
 C385 C 0.66499 0.01735 0.05374
 H386 H 0.77418 0.03285 0.12166
 H387 H 0.70871 0.02807 0.10229
 H388 H 0.77405 0.02442 0.04901
 H389 H 0.83953 0.02920 0.06838
 C390 C 0.15874 0.14874 0.45059
 C391 C 0.19092 0.17821 0.44128
 C392 C 0.22878 0.21416 0.43018
 C393 C 0.22523 0.21704 0.40971
 C394 C 0.26110 0.25323 0.39900
 C395 C 0.30066 0.28671 0.40871
 C396 C 0.30441 0.28358 0.42916
 C397 C 0.26854 0.24738 0.43988
 C398 C 0.33683 0.32481 0.39776
 C399 C 0.36685 0.35694 0.38856
 H400 H 0.19455 0.19165 0.40207
 H401 H 0.25780 0.25537 0.38319
 H402 H 0.33480 0.30934 0.43683
 H403 H 0.27155 0.24560 0.45571
 C404 C -0.03692 0.82592 0.78355
 C405 C -0.03990 0.79468 0.77409
 C406 C -0.04191 0.75803 0.76283
 C407 C -0.04552 0.71858 0.77239
 C408 C -0.04486 0.68413 0.76153
 C409 C -0.04056 0.68902 0.74105
 C410 C -0.03750 0.72821 0.73146
 C411 C -0.03816 0.76266 0.74233
 C412 C -0.03785 0.65455 0.72996
 C413 C -0.03494 0.62600 0.72069
 H414 H -0.04820 0.71476 0.78825
 H415 H -0.04712 0.65403 0.76909
 H416 H -0.03403 0.73240 0.71564
 H417 H -0.03510 0.79314 0.73479
   
